# CIF file generated by openbabel 3.1.1, see https://openbabel.org
data_I
_chemical_name_common '3.01-53.aims'
_cell_length_a 39.917
_cell_length_b 39.917
_cell_length_c 39.917
_cell_angle_alpha 90
_cell_angle_beta 90
_cell_angle_gamma 90
loop_
    _atom_site_label
    _atom_site_type_symbol
    _atom_site_fract_x
    _atom_site_fract_y
    _atom_site_fract_z
    _atom_site_occupancy
    N0       N        0.04148    0.05074    0.02366    1.000
    Si1      Si       0.03708    0.02677    0.09421    1.000
    Si2      Si       0.00339    0.03618    0.03642    1.000
    Si3      Si       0.08605    0.04397    0.02171    1.000
    N4       N        0.99706    0.03720    0.07925    1.000
    N5       N        0.10465    0.01366    0.04810    1.000
    N6       N        0.17315    0.03467    0.05218    1.000
    Si7      Si       0.13889    0.02135    0.07276    1.000
    N8       N        0.12686    0.05608    0.09634    1.000
    Si9      Si       0.19845    0.05065    0.00493    1.000
    Si10     Si       0.23227    0.03548    0.11009    1.000
    N11      N        0.21511    0.01189    0.01053    1.000
    Si12     Si       0.00207    0.03814    0.16560    1.000
    N13      N        0.07010    0.03040    0.19389    1.000
    N14      N        0.03244    0.02369    0.13722    1.000
    Si15     Si       0.01963    0.01190    0.24019    1.000
    Si16     Si       0.08578    0.01244    0.23016    1.000
    N17      N        0.00154    0.00955    0.19961    1.000
    Si18     Si       0.11599    0.04792    0.13689    1.000
    Si19     Si       0.18797    0.05413    0.17028    1.000
    N20      N        0.20585    0.05639    0.21097    1.000
    N21      N        0.15264    0.03255    0.15771    1.000
    N22      N        0.22463    0.03332    0.15454    1.000
    N23      N        0.05254    0.04293    0.33946    1.000
    N24      N        0.09477    0.04673    0.25702    1.000
    Si25     Si       0.03198    0.01494    0.36246    1.000
    Si26     Si       0.08720    0.01429    0.33276    1.000
    N27      N        0.02810    0.05492    0.24993    1.000
    N28      N        0.98955    0.01751    0.36032    1.000
    N29      N        0.12093    0.04395    0.31802    1.000
    Si30     Si       0.12491    0.02176    0.28062    1.000
    Si31     Si       0.19698    0.02227    0.30640    1.000
    N32      N        0.16800    0.02364    0.27343    1.000
    N33      N        0.21006    0.06093    0.31956    1.000
    N34      N        0.23709    0.01138    0.28964    1.000
    Si35     Si       0.13520    0.06406    0.35517    1.000
    N36      N        0.10984    0.01496    0.37096    1.000
    N37      N        0.10416    0.04987    0.43250    1.000
    Si38     Si       0.00556    0.04983    0.41543    1.000
    N39      N        0.04066    0.02644    0.40532    1.000
    Si40     Si       0.08550    0.02119    0.40806    1.000
    Si41     Si       0.19151    0.04462    0.41360    1.000
    Si42     Si       0.13153    0.06171    0.46450    1.000
    N43      N        0.17144    0.05165    0.45132    1.000
    N44      N        0.16663    0.04254    0.37741    1.000
    Si45     Si       0.20081    0.04602    0.48383    1.000
    N46      N        0.23555    0.06522    0.47205    1.000
    N47      N        0.06549    0.02710    0.52049    1.000
    Si48     Si       0.10835    0.02856    0.53944    1.000
    N49      N        0.09278    0.01775    0.58158    1.000
    Si50     Si       0.05611    0.01658    0.60498    1.000
    N51      N        0.04430    0.05804    0.60422    1.000
    N52      N        0.14394    0.04913    0.56174    1.000
    Si53     Si       0.18644    0.03530    0.56742    1.000
    Si54     Si       0.12951    0.03199    0.59932    1.000
    N55      N        0.19538    0.05675    0.52485    1.000
    N56      N        0.17164    0.02388    0.61218    1.000
    N57      N        0.12161    0.05394    0.50516    1.000
    N58      N        0.20820    0.07030    0.58420    1.000
    Si59     Si       0.09969    0.04135    0.66396    1.000
    Si60     Si       0.00257    0.01809    0.69583    1.000
    N61      N        0.00532    0.06167    0.70302    1.000
    N62      N        0.99461    0.01440    0.65261    1.000
    N63      N        0.07292    0.01174    0.64719    1.000
    N64      N        0.17973    0.02801    0.74022    1.000
    N65      N        0.11726    0.06206    0.62752    1.000
    Si66     Si       0.14399    0.04440    0.72097    1.000
    N67      N        0.12533    0.01654    0.69231    1.000
    Si68     Si       0.06490    0.01856    0.78383    1.000
    Si69     Si       0.01483    0.04359    0.82870    1.000
    N70      N        0.04670    0.05641    0.85428    1.000
    N71      N        0.06655    0.06236    0.77344    1.000
    N72      N        0.02358    0.01092    0.79831    1.000
    N73      N        0.22801    0.03402    0.84577    1.000
    Si74     Si       0.19854    0.05812    0.76607    1.000
    N75      N        0.15984    0.01581    0.82265    1.000
    Si76     Si       0.15174    0.05854    0.82785    1.000
    N77      N        0.23457    0.03508    0.77782    1.000
    N78      N        0.09390    0.02636    0.98314    1.000
    Si79     Si       0.04905    0.05106    0.89700    1.000
    N80      N        0.05425    0.00799    0.90131    1.000
    N81      N        0.14137    0.04386    0.93299    1.000
    N82      N        0.23654    0.05975    0.91104    1.000
    Si83     Si       0.23340    0.02222    0.88940    1.000
    Si84     Si       0.13601    0.02587    0.97246    1.000
    N85      N        0.15926    0.05787    0.98839    1.000
    Si86     Si       0.12733    0.04727    0.89256    1.000
    N87      N        0.09618    0.08548    0.03224    1.000
    Si88     Si       0.05401    0.08626    0.04676    1.000
    N89      N        0.09757    0.11876    0.09694    1.000
    Si90     Si       0.06602    0.09695    0.11658    1.000
    Si91     Si       0.09953    0.11882    0.99826    1.000
    N92      N        0.03365    0.12230    0.04399    1.000
    Si93     Si       0.11673    0.09018    0.07285    1.000
    N94      N        0.05767    0.06800    0.08537    1.000
    N95      N        0.20894    0.07219    0.10119    1.000
    N96      N        0.20908    0.08718    0.02994    1.000
    N97      N        0.15499    0.10754    0.06463    1.000
    Si98     Si       0.18720    0.07744    0.06613    1.000
    Si99     Si       0.22955    0.11253    0.00099    1.000
    Si100    Si       0.06274    0.07415    0.18612    1.000
    N101     N        0.08637    0.07696    0.14928    1.000
    N102     N        0.99679    0.10768    0.22924    1.000
    N103     N        0.07404    0.09925    0.21899    1.000
    Si104    Si       0.00290    0.11374    0.18672    1.000
    N105     N        0.02143    0.07685    0.17565    1.000
    Si106    Si       0.21009    0.08552    0.24448    1.000
    N107     N        0.18637    0.09690    0.15736    1.000
    Si108    Si       0.21888    0.10532    0.12765    1.000
    N109     N        0.20923    0.12550    0.22946    1.000
    N110     N        0.06334    0.09898    0.29201    1.000
    Si111    Si       0.04161    0.08193    0.32658    1.000
    Si112    Si       0.06471    0.07659    0.25522    1.000
    N113     N        0.03441    0.11890    0.35051    1.000
    Si114    Si       0.99237    0.08136    0.26530    1.000
    N115     N        0.00246    0.07194    0.31013    1.000
    N116     N        0.17584    0.09452    0.27086    1.000
    Si117    Si       0.18728    0.09770    0.31282    1.000
    N118     N        0.15597    0.10149    0.34100    1.000
    N119     N        0.00690    0.07735    0.45120    1.000
    Si120    Si       0.03669    0.10594    0.46180    1.000
    Si121    Si       0.09673    0.09291    0.41657    1.000
    Si122    Si       0.02066    0.11355    0.39235    1.000
    N123     N        0.05423    0.10778    0.41983    1.000
    N124     N        0.10639    0.08961    0.37579    1.000
    N125     N        0.06391    0.09616    0.49421    1.000
    N126     N        0.99425    0.07816    0.38405    1.000
    Si127    Si       0.09867    0.12312    0.48962    1.000
    N128     N        0.22089    0.07453    0.40600    1.000
    N129     N        0.11791    0.10433    0.45465    1.000
    Si130    Si       0.23148    0.11554    0.40058    1.000
    Si131    Si       0.01391    0.08292    0.58208    1.000
    N132     N        0.08677    0.07905    0.55756    1.000
    N133     N        0.07956    0.11671    0.61660    1.000
    Si134    Si       0.08243    0.07759    0.59956    1.000
    N135     N        0.01266    0.06703    0.54129    1.000
    Si136    Si       0.05572    0.06885    0.52673    1.000
    Si137    Si       0.12801    0.08714    0.54666    1.000
    Si138    Si       0.21509    0.08899    0.54634    1.000
    N139     N        0.14271    0.11460    0.58064    1.000
    Si140    Si       0.22487    0.07930    0.62197    1.000
    N141     N        0.13023    0.12382    0.51983    1.000
    Si142    Si       0.03788    0.08979    0.69080    1.000
    N143     N        0.01878    0.11022    0.65684    1.000
    N144     N        0.04531    0.11171    0.72701    1.000
    N145     N        0.07475    0.07369    0.67635    1.000
    N146     N        0.15446    0.07803    0.69264    1.000
    Si147    Si       0.23193    0.11741    0.73071    1.000
    Si148    Si       0.15579    0.09069    0.65184    1.000
    N149     N        0.19740    0.10427    0.64472    1.000
    Si150    Si       0.15907    0.10216    0.72915    1.000
    N151     N        0.20013    0.09272    0.74038    1.000
    Si152    Si       0.03319    0.09497    0.76937    1.000
    Si153    Si       0.08217    0.08330    0.85029    1.000
    Si154    Si       0.10323    0.08389    0.78071    1.000
    N155     N        0.01048    0.07959    0.80406    1.000
    N156     N        0.07259    0.12744    0.84682    1.000
    N157     N        0.11205    0.07089    0.82143    1.000
    Si158    Si       0.20856    0.10634    0.82374    1.000
    N159     N        0.18319    0.07576    0.80462    1.000
    N160     N        0.21078    0.10870    0.86775    1.000
    N161     N        0.13292    0.07414    0.75121    1.000
    N162     N        0.15804    0.06752    0.86891    1.000
    Si163    Si       0.08384    0.09751    0.92958    1.000
    Si164    Si       0.00715    0.07002    0.94415    1.000
    N165     N        0.09301    0.07417    0.89252    1.000
    N166     N        0.04943    0.06968    0.93731    1.000
    N167     N        0.11224    0.09885    0.96265    1.000
    N168     N        0.98970    0.11155    0.94233    1.000
    N169     N        0.99714    0.06651    0.89962    1.000
    N170     N        0.22601    0.07212    0.97616    1.000
    Si171    Si       0.16965    0.10510    0.88744    1.000
    Si172    Si       0.15016    0.08296    0.95499    1.000
    N173     N        0.17446    0.10637    0.92991    1.000
    Si174    Si       0.03344    0.15213    0.01022    1.000
    Si175    Si       0.01022    0.13227    0.07704    1.000
    N176     N        0.99270    0.17148    0.06958    1.000
    N177     N        0.99153    0.15771    0.99759    1.000
    Si178    Si       0.11240    0.15574    0.11206    1.000
    N179     N        0.03367    0.12628    0.11355    1.000
    N180     N        0.12740    0.14868    0.01397    1.000
    Si181    Si       0.15365    0.14512    0.04769    1.000
    N182     N        0.19156    0.16885    0.04598    1.000
    N183     N        0.21431    0.14535    0.10635    1.000
    Si184    Si       0.22892    0.15827    0.06794    1.000
    N185     N        0.13774    0.17261    0.08089    1.000
    Si186    Si       0.19959    0.18271    0.00267    1.000
    Si187    Si       0.10027    0.13581    0.22327    1.000
    N188     N        0.08239    0.16868    0.20059    1.000
    N189     N        0.02362    0.15060    0.17720    1.000
    Si190    Si       0.03927    0.16109    0.13718    1.000
    Si191    Si       0.03979    0.17877    0.20708    1.000
    N192     N        0.01348    0.17326    0.24193    1.000
    N193     N        0.08058    0.17924    0.13066    1.000
    Si194    Si       0.10635    0.18333    0.16655    1.000
    N195     N        0.14256    0.12970    0.21470    1.000
    Si196    Si       0.23026    0.15441    0.20386    1.000
    Si197    Si       0.16358    0.13083    0.17462    1.000
    N198     N        0.13278    0.15004    0.15046    1.000
    Si199    Si       0.20944    0.17950    0.13470    1.000
    N200     N        0.19800    0.15861    0.17234    1.000
    Si201    Si       0.07451    0.14091    0.29756    1.000
    N202     N        0.03847    0.16584    0.30475    1.000
    N203     N        0.09612    0.15421    0.26242    1.000
    N204     N        0.10053    0.14957    0.32993    1.000
    Si205    Si       0.01165    0.15449    0.33748    1.000
    N206     N        0.17137    0.17024    0.27387    1.000
    N207     N        0.21227    0.13495    0.31513    1.000
    Si208    Si       0.18958    0.17256    0.31517    1.000
    N209     N        0.15708    0.16916    0.34549    1.000
    Si210    Si       0.12450    0.12685    0.35851    1.000
    Si211    Si       0.16998    0.13378    0.24892    1.000
    N212     N        0.08405    0.16268    0.48205    1.000
    N213     N        0.01702    0.14372    0.47677    1.000
    N214     N        0.99448    0.14222    0.40692    1.000
    Si215    Si       0.04343    0.17750    0.49288    1.000
    Si216    Si       0.01290    0.18300    0.40273    1.000
    N217     N        0.05563    0.18248    0.41283    1.000
    N218     N        0.20064    0.14812    0.40541    1.000
    N219     N        0.12323    0.15325    0.39360    1.000
    Si220    Si       0.16505    0.16736    0.39010    1.000
    Si221    Si       0.01254    0.16414    0.56033    1.000
    N222     N        0.04447    0.18220    0.53721    1.000
    N223     N        0.02324    0.12407    0.58288    1.000
    N224     N        0.11461    0.17436    0.60960    1.000
    Si225    Si       0.11931    0.13240    0.61339    1.000
    Si226    Si       0.15900    0.14094    0.54992    1.000
    N227     N        0.16865    0.17934    0.56717    1.000
    N228     N        0.19643    0.12602    0.53664    1.000
    Si229    Si       0.04248    0.13341    0.62493    1.000
    N230     N        0.00788    0.17123    0.73578    1.000
    N231     N        0.04832    0.17441    0.63376    1.000
    N232     N        0.13592    0.12891    0.65283    1.000
    N233     N        0.22050    0.15808    0.74209    1.000
    N234     N        0.13971    0.14009    0.72397    1.000
    N235     N        0.18606    0.16574    0.68179    1.000
    Si236    Si       0.14349    0.15612    0.68446    1.000
    N237     N        0.23263    0.17271    0.63471    1.000
    Si238    Si       0.21583    0.14194    0.65994    1.000
    Si239    Si       0.07794    0.14813    0.80961    1.000
    N240     N        0.04432    0.13763    0.78317    1.000
    N241     N        0.10935    0.12758    0.78571    1.000
    Si242    Si       0.99527    0.17676    0.87171    1.000
    Si243    Si       0.04618    0.15348    0.74429    1.000
    N244     N        0.08465    0.17537    0.74481    1.000
    Si245    Si       0.12307    0.16138    0.75968    1.000
    N246     N        0.19425    0.13963    0.80392    1.000
    Si247    Si       0.22128    0.16662    0.78407    1.000
    N248     N        0.15102    0.14029    0.87037    1.000
    N249     N        0.00641    0.13548    0.87844    1.000
    Si250    Si       0.06963    0.16482    0.94940    1.000
    N251     N        0.06915    0.13736    0.91471    1.000
    N252     N        0.06284    0.13751    0.98308    1.000
    Si253    Si       0.04965    0.14663    0.87716    1.000
    N254     N        0.11016    0.18107    0.95371    1.000
    Si255    Si       0.16969    0.17914    0.87430    1.000
    N256     N        0.17266    0.17642    0.91833    1.000
    N257     N        0.23394    0.13857    0.92035    1.000
    Si258    Si       0.19628    0.14374    0.93832    1.000
    N259     N        0.20266    0.14502    0.98233    1.000
    Si260    Si       0.07325    0.22728    0.03125    1.000
    N261     N        0.04514    0.19462    0.01468    1.000
    N262     N        0.07295    0.22049    0.07326    1.000
    Si263    Si       0.06283    0.21516    0.11357    1.000
    N264     N        0.11042    0.22341    0.01035    1.000
    Si265    Si       0.01651    0.22522    0.00001    1.000
    N266     N        0.16979    0.23225    0.04584    1.000
    Si267    Si       0.17076    0.19905    0.07371    1.000
    N268     N        0.18309    0.20747    0.11346    1.000
    N269     N        0.23531    0.20436    0.00467    1.000
    Si270    Si       0.12318    0.18644    0.99275    1.000
    Si271    Si       0.01777    0.23214    0.15741    1.000
    N272     N        0.01979    0.19855    0.12694    1.000
    N273     N        0.03264    0.21918    0.19441    1.000
    N274     N        0.23906    0.19380    0.21640    1.000
    Si275    Si       0.12371    0.24131    0.20020    1.000
    Si276    Si       0.23568    0.22817    0.24162    1.000
    N277     N        0.12905    0.21969    0.16281    1.000
    N278     N        0.12931    0.21267    0.23263    1.000
    Si279    Si       0.15613    0.23800    0.13346    1.000
    Si280    Si       0.00462    0.22810    0.34127    1.000
    N281     N        0.00277    0.22236    0.29651    1.000
    Si282    Si       0.02960    0.19572    0.27536    1.000
    N283     N        0.01406    0.19097    0.36153    1.000
    N284     N        0.06101    0.21464    0.25435    1.000
    N285     N        0.09782    0.21327    0.36376    1.000
    Si286    Si       0.09989    0.19935    0.26164    1.000
    Si287    Si       0.11962    0.18876    0.33351    1.000
    N288     N        0.12477    0.21389    0.29701    1.000
    N289     N        0.20127    0.21454    0.32831    1.000
    Si290    Si       0.15990    0.21176    0.26348    1.000
    Si291    Si       0.18322    0.23461    0.36391    1.000
    N292     N        0.19247    0.23573    0.25196    1.000
    N293     N        0.02132    0.21132    0.47906    1.000
    Si294    Si       0.10876    0.20183    0.47874    1.000
    Si295    Si       0.09596    0.18723    0.40303    1.000
    N296     N        0.07821    0.22353    0.49908    1.000
    N297     N        0.14906    0.21382    0.49171    1.000
    N298     N        0.17583    0.20871    0.39873    1.000
    Si299    Si       0.15982    0.21918    0.44116    1.000
    N300     N        0.11859    0.20505    0.43666    1.000
    N301     N        0.20127    0.20298    0.45619    1.000
    Si302    Si       0.21613    0.18844    0.41841    1.000
    N303     N        0.23808    0.20182    0.38212    1.000
    Si304    Si       0.07048    0.21825    0.54253    1.000
    N305     N        0.10776    0.22409    0.56201    1.000
    N306     N        0.02574    0.24131    0.61816    1.000
    N307     N        0.99651    0.19173    0.59057    1.000
    Si308    Si       0.13586    0.20235    0.58712    1.000
    N309     N        0.20605    0.23322    0.57767    1.000
    Si310    Si       0.21055    0.19394    0.56157    1.000
    N311     N        0.21542    0.19451    0.51872    1.000
    N312     N        0.14672    0.23353    0.61645    1.000
    Si313    Si       0.19020    0.22020    0.49512    1.000
    Si314    Si       0.07500    0.21651    0.72933    1.000
    Si315    Si       0.01585    0.20141    0.62885    1.000
    Si316    Si       0.07755    0.19511    0.65808    1.000
    Si317    Si       0.01037    0.20305    0.70500    1.000
    N318     N        0.05181    0.20783    0.69346    1.000
    N319     N        0.08613    0.23838    0.64786    1.000
    N320     N        0.99696    0.23655    0.72835    1.000
    N321     N        0.99112    0.19839    0.66578    1.000
    Si322    Si       0.23793    0.21196    0.65121    1.000
    N323     N        0.18660    0.22369    0.72719    1.000
    Si324    Si       0.20961    0.18825    0.71174    1.000
    N325     N        0.20147    0.23612    0.65621    1.000
    N326     N        0.11917    0.19281    0.67645    1.000
    Si327    Si       0.12948    0.22896    0.65475    1.000
    Si328    Si       0.05591    0.21569    0.83993    1.000
    N329     N        0.05074    0.23625    0.76049    1.000
    N330     N        0.08442    0.19065    0.81757    1.000
    N331     N        0.02344    0.24165    0.82425    1.000
    N332     N        0.07985    0.23931    0.86972    1.000
    N333     N        0.03575    0.18739    0.86493    1.000
    Si334    Si       0.23785    0.22128    0.86151    1.000
    Si335    Si       0.12195    0.21261    0.81428    1.000
    N336     N        0.21093    0.20784    0.79004    1.000
    Si337    Si       0.17704    0.22505    0.76909    1.000
    N338     N        0.14296    0.21004    0.85321    1.000
    N339     N        0.14196    0.19866    0.77767    1.000
    N340     N        0.21087    0.18577    0.86290    1.000
    N341     N        0.99293    0.23450    0.96412    1.000
    Si342    Si       0.01372    0.22177    0.92544    1.000
    N343     N        0.04365    0.19563    0.94127    1.000
    Si344    Si       0.14689    0.20259    0.94072    1.000
    N345     N        0.13358    0.23856    0.91874    1.000
    N346     N        0.16446    0.20195    0.98225    1.000
    Si347    Si       0.12262    0.24222    0.87655    1.000
    N348     N        0.04327    0.25677    0.01259    1.000
    Si349    Si       0.04133    0.30071    0.00057    1.000
    N350     N        0.00796    0.29987    0.11502    1.000
    Si351    Si       0.11718    0.29860    0.11219    1.000
    N352     N        0.18803    0.29654    0.07675    1.000
    Si353    Si       0.15604    0.26897    0.06549    1.000
    N354     N        0.13626    0.25961    0.10177    1.000
    N355     N        0.13744    0.28292    0.02999    1.000
    Si356    Si       0.20704    0.28404    0.11198    1.000
    Si357    Si       0.15057    0.24449    0.00692    1.000
    Si358    Si       0.04788    0.29096    0.12551    1.000
    N359     N        0.05166    0.25101    0.13595    1.000
    N360     N        0.08528    0.26249    0.20650    1.000
    Si361    Si       0.09237    0.30001    0.18691    1.000
    N362     N        0.01843    0.26861    0.24428    1.000
    Si363    Si       0.04915    0.24599    0.22556    1.000
    N364     N        0.18502    0.26886    0.14577    1.000
    N365     N        0.12113    0.29793    0.15465    1.000
    N366     N        0.15418    0.27036    0.20575    1.000
    Si367    Si       0.16203    0.29524    0.17243    1.000
    Si368    Si       0.17507    0.27586    0.24333    1.000
    N369     N        0.08803    0.27177    0.32109    1.000
    N370     N        0.03199    0.25756    0.35881    1.000
    Si371    Si       0.07607    0.25219    0.36093    1.000
    N372     N        0.14398    0.27841    0.27354    1.000
    Si373    Si       0.12749    0.25735    0.30916    1.000
    N374     N        0.15147    0.25540    0.34523    1.000
    Si375    Si       0.22834    0.29593    0.35771    1.000
    N376     N        0.23250    0.28893    0.31576    1.000
    Si377    Si       0.00637    0.28962    0.37520    1.000
    N378     N        0.09422    0.28168    0.38755    1.000
    N379     N        0.06121    0.25643    0.43706    1.000
    Si380    Si       0.08389    0.29101    0.42878    1.000
    Si381    Si       0.04867    0.24420    0.47706    1.000
    N382     N        0.03774    0.28343    0.49502    1.000
    N383     N        0.11661    0.30047    0.45713    1.000
    N384     N        0.23748    0.28593    0.44359    1.000
    N385     N        0.20535    0.26922    0.38107    1.000
    Si386    Si       0.19907    0.28564    0.42085    1.000
    N387     N        0.17171    0.26162    0.44480    1.000
    Si388    Si       0.15925    0.29882    0.46559    1.000
    Si389    Si       0.05789    0.28556    0.53251    1.000
    N390     N        0.09948    0.28773    0.53629    1.000
    N391     N        0.09132    0.28577    0.60096    1.000
    N392     N        0.04410    0.25209    0.55704    1.000
    N393     N        0.99228    0.29209    0.59614    1.000
    Si394    Si       0.00738    0.25224    0.58006    1.000
    Si395    Si       0.11632    0.26661    0.56961    1.000
    Si396    Si       0.19941    0.26918    0.55102    1.000
    N397     N        0.15812    0.27651    0.56248    1.000
    N398     N        0.20521    0.25969    0.50866    1.000
    Si399    Si       0.18612    0.25010    0.61600    1.000
    N400     N        0.22905    0.29920    0.55853    1.000
    Si401    Si       0.05986    0.26642    0.62745    1.000
    N402     N        0.03698    0.29859    0.64616    1.000
    N403     N        0.10333    0.24973    0.73218    1.000
    Si404    Si       0.99174    0.29472    0.64012    1.000
    N405     N        0.19978    0.29188    0.61950    1.000
    N406     N        0.14682    0.25677    0.68197    1.000
    Si407    Si       0.18825    0.25427    0.69452    1.000
    N408     N        0.20747    0.28963    0.71250    1.000
    Si409    Si       0.12172    0.27927    0.70640    1.000
    Si410    Si       0.08341    0.26384    0.76856    1.000
    N411     N        0.00290    0.28814    0.77934    1.000
    Si412    Si       0.01514    0.29221    0.82242    1.000
    N413     N        0.10794    0.25129    0.80185    1.000
    Si414    Si       0.00789    0.24305    0.77228    1.000
    N415     N        0.04713    0.30016    0.85158    1.000
    Si416    Si       0.13724    0.28070    0.81555    1.000
    N417     N        0.21725    0.25860    0.85876    1.000
    N418     N        0.17354    0.26062    0.79690    1.000
    N419     N        0.13562    0.28004    0.85875    1.000
    Si420    Si       0.20608    0.27732    0.82026    1.000
    Si421    Si       0.06067    0.27440    0.88428    1.000
    N422     N        0.02649    0.25847    0.90869    1.000
    Si423    Si       0.01140    0.29551    0.92668    1.000
    N424     N        0.10618    0.29235    0.97044    1.000
    N425     N        0.09253    0.29543    0.90775    1.000
    Si426    Si       0.19080    0.29428    0.94799    1.000
    N427     N        0.22462    0.28437    0.92289    1.000
    Si428    Si       0.13206    0.27487    0.94177    1.000
    N429     N        0.16443    0.26567    0.97122    1.000
    N430     N        0.23581    0.27892    0.99246    1.000
    N431     N        0.02227    0.34131    0.06292    1.000
    Si432    Si       0.06533    0.33269    0.06428    1.000
    N433     N        0.07431    0.31882    0.02367    1.000
    Si434    Si       0.99786    0.35310    0.02936    1.000
    N435     N        0.00327    0.32171    0.00227    1.000
    N436     N        0.07598    0.30364    0.09592    1.000
    Si437    Si       0.11529    0.31255    0.00785    1.000
    N438     N        0.13825    0.33355    0.09742    1.000
    Si439    Si       0.17774    0.33988    0.07268    1.000
    N440     N        0.19654    0.35254    0.03420    1.000
    N441     N        0.13513    0.35066    0.99887    1.000
    Si442    Si       0.07000    0.35356    0.16960    1.000
    N443     N        0.03640    0.33798    0.22740    1.000
    N444     N        0.09752    0.33845    0.20496    1.000
    N445     N        0.05922    0.31293    0.16045    1.000
    Si446    Si       0.07630    0.34830    0.24093    1.000
    Si447    Si       0.00561    0.36135    0.20845    1.000
    N448     N        0.20787    0.30379    0.23893    1.000
    Si449    Si       0.13897    0.35419    0.21388    1.000
    Si450    Si       0.20812    0.33890    0.20994    1.000
    N451     N        0.17018    0.33559    0.18812    1.000
    N452     N        0.09021    0.32101    0.27032    1.000
    N453     N        0.08000    0.33219    0.33993    1.000
    Si454    Si       0.99979    0.34230    0.32058    1.000
    N455     N        0.02728    0.31589    0.29483    1.000
    Si456    Si       0.05358    0.35366    0.36424    1.000
    Si457    Si       0.01354    0.31063    0.25380    1.000
    Si458    Si       0.11432    0.30869    0.35613    1.000
    Si459    Si       0.06845    0.30744    0.30491    1.000
    N460     N        0.14034    0.32107    0.32282    1.000
    Si461    Si       0.13301    0.32010    0.27963    1.000
    N462     N        0.20009    0.33200    0.35618    1.000
    N463     N        0.21617    0.35101    0.28873    1.000
    Si464    Si       0.22806    0.31174    0.27786    1.000
    Si465    Si       0.15968    0.34822    0.35075    1.000
    N466     N        0.15255    0.34990    0.25647    1.000
    Si467    Si       0.22575    0.35749    0.33107    1.000
    Si468    Si       0.09942    0.34169    0.46333    1.000
    N469     N        0.02844    0.32608    0.38732    1.000
    Si470    Si       0.02702    0.34415    0.42647    1.000
    N471     N        0.06572    0.32910    0.43986    1.000
    N472     N        0.99699    0.32624    0.45366    1.000
    Si473    Si       0.00982    0.31792    0.49328    1.000
    N474     N        0.18067    0.32457    0.43575    1.000
    N475     N        0.13710    0.33516    0.38311    1.000
    Si476    Si       0.15688    0.35636    0.41726    1.000
    N477     N        0.04596    0.32204    0.55730    1.000
    Si478    Si       0.08077    0.32585    0.58644    1.000
    Si479    Si       0.00200    0.31974    0.56487    1.000
    N480     N        0.09196    0.34522    0.50494    1.000
    N481     N        0.02008    0.35641    0.50821    1.000
    Si482    Si       0.05779    0.35610    0.52954    1.000
    N483     N        0.99406    0.35920    0.58070    1.000
    N484     N        0.11461    0.34568    0.56590    1.000
    N485     N        0.08091    0.35883    0.61595    1.000
    Si486    Si       0.12236    0.32383    0.52759    1.000
    Si487    Si       0.22874    0.31526    0.59958    1.000
    N488     N        0.22237    0.35248    0.51622    1.000
    N489     N        0.15741    0.32370    0.50321    1.000
    Si490    Si       0.17911    0.35941    0.51221    1.000
    N491     N        0.22282    0.35883    0.59745    1.000
    Si492    Si       0.04805    0.31389    0.68428    1.000
    N493     N        0.04632    0.35832    0.68142    1.000
    Si494    Si       0.11318    0.33887    0.70961    1.000
    N495     N        0.08844    0.30608    0.69364    1.000
    N496     N        0.01800    0.30351    0.71373    1.000
    Si497    Si       0.18855    0.32801    0.72403    1.000
    N498     N        0.23463    0.34364    0.72784    1.000
    N499     N        0.14609    0.31231    0.72197    1.000
    Si500    Si       0.09507    0.33813    0.77989    1.000
    N501     N        0.00796    0.34046    0.82501    1.000
    Si502    Si       0.02778    0.31854    0.75503    1.000
    Si503    Si       0.03049    0.34284    0.86333    1.000
    N504     N        0.06932    0.30481    0.76500    1.000
    N505     N        0.03200    0.36196    0.75394    1.000
    N506     N        0.10207    0.36238    0.74337    1.000
    N507     N        0.12988    0.32122    0.80120    1.000
    Si508    Si       0.16726    0.34368    0.80363    1.000
    N509     N        0.18455    0.34441    0.76389    1.000
    N510     N        0.19160    0.31826    0.82904    1.000
    Si511    Si       0.20970    0.35088    0.85720    1.000
    N512     N        0.12749    0.35111    0.86960    1.000
    Si513    Si       0.22470    0.35976    0.76736    1.000
    Si514    Si       0.08135    0.31622    0.94481    1.000
    N515     N        0.00946    0.32868    0.89784    1.000
    N516     N        0.04313    0.30523    0.95704    1.000
    N517     N        0.08780    0.35887    0.94849    1.000
    Si518    Si       0.12990    0.31086    0.88692    1.000
    Si519    Si       0.17746    0.35534    0.99443    1.000
    N520     N        0.20258    0.32862    0.97065    1.000
    N521     N        0.15645    0.30400    0.91902    1.000
    N522     N        0.00751    0.39211    0.01460    1.000
    Si523    Si       0.07239    0.40774    0.05117    1.000
    N524     N        0.07521    0.39678    0.00794    1.000
    N525     N        0.08435    0.37282    0.07321    1.000
    Si526    Si       0.11431    0.37016    0.10442    1.000
    N527     N        0.14399    0.40033    0.09242    1.000
    Si528    Si       0.18357    0.39916    0.10807    1.000
    N529     N        0.20480    0.36130    0.09863    1.000
    Si530    Si       0.23869    0.36660    0.04117    1.000
    N531     N        0.03030    0.37540    0.17373    1.000
    N532     N        0.09812    0.37739    0.14377    1.000
    N533     N        0.99358    0.39804    0.22706    1.000
    Si534    Si       0.10329    0.41650    0.22485    1.000
    Si535    Si       0.02965    0.41986    0.17020    1.000
    N536     N        0.98939    0.41486    0.15262    1.000
    Si537    Si       0.99031    0.37305    0.14790    1.000
    Si538    Si       0.09458    0.42006    0.15474    1.000
    N539     N        0.13385    0.39551    0.20243    1.000
    N540     N        0.20651    0.37845    0.22549    1.000
    N541     N        0.19248    0.40485    0.14922    1.000
    Si542    Si       0.23681    0.40451    0.15040    1.000
    Si543    Si       0.16153    0.42116    0.17645    1.000
    N544     N        0.02292    0.37334    0.33946    1.000
    Si545    Si       0.00957    0.41498    0.33133    1.000
    Si546    Si       0.11010    0.40823    0.35992    1.000
    N547     N        0.08340    0.38909    0.24951    1.000
    N548     N        0.20700    0.39421    0.34430    1.000
    Si549    Si       0.18855    0.37294    0.26459    1.000
    N550     N        0.14319    0.38772    0.34198    1.000
    N551     N        0.18554    0.41225    0.28175    1.000
    Si552    Si       0.17401    0.41193    0.32378    1.000
    N553     N        0.07943    0.38589    0.37937    1.000
    Si554    Si       0.05115    0.41094    0.39814    1.000
    N555     N        0.02274    0.38677    0.42078    1.000
    N556     N        0.03571    0.42293    0.49034    1.000
    Si557    Si       0.21704    0.40016    0.38569    1.000
    N558     N        0.18497    0.39013    0.41376    1.000
    N559     N        0.23236    0.38434    0.45963    1.000
    Si560    Si       0.13260    0.40888    0.47149    1.000
    N561     N        0.12730    0.37004    0.44821    1.000
    N562     N        0.17217    0.39873    0.48872    1.000
    Si563    Si       0.19708    0.40649    0.45329    1.000
    N564     N        0.05557    0.39395    0.54874    1.000
    Si565    Si       0.01715    0.39473    0.57023    1.000
    N566     N        0.02699    0.40951    0.60753    1.000
    Si567    Si       0.00284    0.39592    0.50351    1.000
    N568     N        0.10898    0.41780    0.59188    1.000
    N569     N        0.10374    0.41402    0.50048    1.000
    N570     N        0.98869    0.41279    0.54305    1.000
    Si571    Si       0.11816    0.37579    0.59682    1.000
    N572     N        0.17155    0.37998    0.54973    1.000
    Si573    Si       0.18542    0.37947    0.59273    1.000
    N574     N        0.15556    0.36843    0.62052    1.000
    Si575    Si       0.17995    0.41839    0.52891    1.000
    N576     N        0.07587    0.41619    0.65101    1.000
    Si577    Si       0.07880    0.37361    0.65606    1.000
    Si578    Si       0.02554    0.37849    0.71413    1.000
    Si579    Si       0.10120    0.40667    0.74612    1.000
    Si580    Si       0.22900    0.37566    0.69829    1.000
    Si581    Si       0.15581    0.38109    0.66324    1.000
    N582     N        0.18441    0.36395    0.69299    1.000
    N583     N        0.11785    0.36708    0.67765    1.000
    N584     N        0.00924    0.40368    0.80099    1.000
    Si585    Si       0.04664    0.38817    0.78744    1.000
    Si586    Si       0.09371    0.37318    0.84984    1.000
    N587     N        0.06672    0.42081    0.76877    1.000
    N588     N        0.07775    0.36628    0.80992    1.000
    N589     N        0.11920    0.41256    0.85102    1.000
    N590     N        0.21395    0.40276    0.77368    1.000
    N591     N        0.17797    0.37787    0.83044    1.000
    Si592    Si       0.20813    0.40877    0.81768    1.000
    N593     N        0.13366    0.41022    0.77329    1.000
    Si594    Si       0.15408    0.38686    0.86973    1.000
    N595     N        0.99130    0.39474    0.87620    1.000
    Si596    Si       0.99603    0.39777    0.92036    1.000
    Si597    Si       0.10582    0.37894    0.98248    1.000
    N598     N        0.03128    0.38990    0.94481    1.000
    Si599    Si       0.06742    0.38206    0.91883    1.000
    Si600    Si       0.03858    0.40412    0.98682    1.000
    N601     N        0.06296    0.36519    0.87829    1.000
    N602     N        0.18390    0.39123    0.96962    1.000
    N603     N        0.19147    0.36612    0.89252    1.000
    Si604    Si       0.19196    0.39485    0.92521    1.000
    N605     N        0.15328    0.41230    0.90903    1.000
    Si606    Si       0.03669    0.45320    0.10146    1.000
    N607     N        0.10176    0.44132    0.04561    1.000
    N608     N        0.99473    0.46771    0.10860    1.000
    N609     N        0.99530    0.45981    0.02010    1.000
    Si610    Si       0.09245    0.44504    0.00010    1.000
    Si611    Si       0.99927    0.42441    0.04182    1.000
    N612     N        0.03666    0.42986    0.06344    1.000
    N613     N        0.13807    0.47241    0.08680    1.000
    Si614    Si       0.14314    0.43393    0.06556    1.000
    Si615    Si       0.20740    0.43618    0.04307    1.000
    N616     N        0.19766    0.43522    0.08686    1.000
    Si617    Si       0.22033    0.46201    0.11196    1.000
    N618     N        0.16842    0.42013    0.03108    1.000
    N619     N        0.21032    0.47486    0.02755    1.000
    N620     N        0.01634    0.45333    0.19440    1.000
    Si621    Si       0.05690    0.46794    0.20136    1.000
    N622     N        0.05397    0.42920    0.13358    1.000
    N623     N        0.07574    0.42974    0.19397    1.000
    N624     N        0.05835    0.47901    0.24445    1.000
    Si625    Si       0.15729    0.47860    0.22426    1.000
    N626     N        0.13156    0.44239    0.15253    1.000
    N627     N        0.12308    0.45295    0.24017    1.000
    N628     N        0.18342    0.44452    0.20673    1.000
    Si629    Si       0.21822    0.42159    0.22056    1.000
    Si630    Si       0.14879    0.47584    0.12876    1.000
    N631     N        0.02985    0.44240    0.30291    1.000
    Si632    Si       0.05895    0.45545    0.33289    1.000
    N633     N        0.09671    0.43784    0.33120    1.000
    N634     N        0.03442    0.43771    0.36727    1.000
    Si635    Si       0.02233    0.47346    0.26967    1.000
    N636     N        0.22499    0.47062    0.31945    1.000
    Si637    Si       0.12852    0.46518    0.34710    1.000
    N638     N        0.16153    0.45394    0.32130    1.000
    Si639    Si       0.19583    0.45560    0.28715    1.000
    N640     N        0.22924    0.45235    0.24921    1.000
    N641     N        0.00632    0.44804    0.43037    1.000
    Si642    Si       0.04237    0.44631    0.45414    1.000
    Si643    Si       0.01155    0.46696    0.39119    1.000
    N644     N        0.07430    0.43272    0.42764    1.000
    Si645    Si       0.11300    0.45403    0.42111    1.000
    N646     N        0.14321    0.44668    0.44988    1.000
    N647     N        0.12679    0.44149    0.38333    1.000
    N648     N        0.21039    0.44723    0.43952    1.000
    Si649    Si       0.17837    0.47428    0.45194    1.000
    N650     N        0.06422    0.46831    0.53410    1.000
    N651     N        0.05982    0.46763    0.60719    1.000
    Si652    Si       0.06743    0.42673    0.52116    1.000
    Si653    Si       0.06932    0.42568    0.60844    1.000
    N654     N        0.15398    0.45061    0.54081    1.000
    Si655    Si       0.14212    0.44295    0.58081    1.000
    Si656    Si       0.21405    0.44999    0.60853    1.000
    N657     N        0.22160    0.47418    0.57302    1.000
    N658     N        0.13430    0.47729    0.60641    1.000
    N659     N        0.18176    0.42406    0.59501    1.000
    N660     N        0.22515    0.42285    0.52451    1.000
    N661     N        0.10587    0.43225    0.71229    1.000
    Si662    Si       0.06968    0.43900    0.68842    1.000
    N663     N        0.03383    0.42183    0.70860    1.000
    N664     N        0.99302    0.44905    0.66334    1.000
    Si665    Si       0.99121    0.43067    0.62463    1.000
    Si666    Si       0.14338    0.44669    0.70070    1.000
    N667     N        0.15277    0.42606    0.66229    1.000
    Si668    Si       0.15315    0.46897    0.64357    1.000
    N669     N        0.17474    0.44934    0.73348    1.000
    N670     N        0.19544    0.47314    0.63769    1.000
    N671     N        0.01683    0.46630    0.77367    1.000
    Si672    Si       0.06429    0.46353    0.77590    1.000
    N673     N        0.09753    0.46336    0.80588    1.000
    Si674    Si       0.99324    0.44471    0.80317    1.000
    N675     N        0.99512    0.45863    0.84351    1.000
    N676     N        0.05310    0.42891    0.85532    1.000
    Si677    Si       0.01275    0.43169    0.86854    1.000
    Si678    Si       0.09124    0.43973    0.87089    1.000
    N679     N        0.17242    0.44097    0.81213    1.000
    Si680    Si       0.12846    0.43197    0.81314    1.000
    Si681    Si       0.17418    0.42471    0.76745    1.000
    N682     N        0.23584    0.46748    0.75369    1.000
    N683     N        0.08364    0.42481    0.91487    1.000
    N684     N        0.01064    0.44115    0.91387    1.000
    N685     N        0.05275    0.44615    0.97981    1.000
    Si686    Si       0.04962    0.44731    0.93323    1.000
    N687     N        0.17018    0.46229    0.97769    1.000
    N688     N        0.12143    0.41951    0.97302    1.000
    N689     N        0.12506    0.47828    0.93382    1.000
    Si690    Si       0.21475    0.46741    0.90819    1.000
    N691     N        0.18990    0.47757    0.87501    1.000
    Si692    Si       0.16223    0.42188    0.98900    1.000
    N693     N        0.22301    0.42538    0.91795    1.000
    Si694    Si       0.12305    0.43571    0.93135    1.000
    Si695    Si       0.08389    0.52140    0.01218    1.000
    N696     N        0.09951    0.52162    0.05369    1.000
    N697     N        0.04070    0.51588    0.01078    1.000
    Si698    Si       0.09891    0.48073    0.06755    1.000
    N699     N        0.06995    0.48262    0.09889    1.000
    N700     N        0.10366    0.48704    0.99546    1.000
    Si701    Si       0.23080    0.51222    0.04498    1.000
    N702     N        0.07770    0.49507    0.17427    1.000
    N703     N        0.02931    0.52097    0.13616    1.000
    Si704    Si       0.07067    0.50874    0.13292    1.000
    Si705    Si       0.10924    0.52607    0.17904    1.000
    Si706    Si       0.99094    0.50826    0.12556    1.000
    N707     N        0.12605    0.51107    0.21679    1.000
    N708     N        0.19103    0.48010    0.13815    1.000
    Si709    Si       0.20675    0.51315    0.16447    1.000
    N710     N        0.13370    0.51378    0.14531    1.000
    Si711    Si       0.21725    0.49444    0.23490    1.000
    N712     N        0.18924    0.51188    0.20553    1.000
    N713     N        0.02550    0.51374    0.28902    1.000
    N714     N        0.07230    0.49864    0.33832    1.000
    N715     N        0.10250    0.51974    0.27972    1.000
    Si716    Si       0.06520    0.52159    0.30210    1.000
    Si717    Si       0.10084    0.49021    0.24935    1.000
    N718     N        0.17842    0.48844    0.26262    1.000
    N719     N        0.22637    0.52644    0.26684    1.000
    Si720    Si       0.18729    0.52507    0.28368    1.000
    Si721    Si       0.22181    0.50731    0.34305    1.000
    N722     N        0.19014    0.53277    0.32440    1.000
    N723     N        0.13706    0.50491    0.36276    1.000
    Si724    Si       0.09554    0.51506    0.37120    1.000
    N725     N        0.09461    0.49571    0.41344    1.000
    N726     N        0.02964    0.50659    0.39910    1.000
    Si727    Si       0.05789    0.51132    0.43042    1.000
    N728     N        0.05268    0.48605    0.46478    1.000
    Si729    Si       0.99953    0.53738    0.38804    1.000
    N730     N        0.16648    0.51283    0.43477    1.000
    Si731    Si       0.14559    0.53840    0.46541    1.000
    Si732    Si       0.16794    0.51961    0.39158    1.000
    Si733    Si       0.23638    0.52489    0.41866    1.000
    N734     N        0.20915    0.51007    0.38600    1.000
    N735     N        0.18748    0.48996    0.49167    1.000
    N736     N        0.23885    0.53291    0.46374    1.000
    N737     N        0.02902    0.51760    0.57819    1.000
    N738     N        0.09135    0.52138    0.56999    1.000
    Si739    Si       0.04368    0.49612    0.50450    1.000
    Si740    Si       0.06212    0.48975    0.57097    1.000
    N741     N        0.00253    0.49109    0.50945    1.000
    Si742    Si       0.99570    0.50152    0.60370    1.000
    N743     N        0.06112    0.53501    0.51034    1.000
    Si744    Si       0.10180    0.53499    0.52888    1.000
    Si745    Si       0.13174    0.51719    0.59026    1.000
    N746     N        0.15519    0.51879    0.55351    1.000
    Si747    Si       0.22704    0.51856    0.57675    1.000
    Si748    Si       0.15474    0.48870    0.52143    1.000
    N749     N        0.21682    0.53467    0.53736    1.000
    N750     N        0.21196    0.53174    0.61719    1.000
    Si751    Si       0.22328    0.51291    0.49860    1.000
    N752     N        0.12754    0.51374    0.49796    1.000
    Si753    Si       0.05317    0.50418    0.71032    1.000
    N754     N        0.01078    0.49476    0.70999    1.000
    N755     N        0.01333    0.51095    0.64418    1.000
    Si756    Si       0.05585    0.49669    0.63958    1.000
    Si757    Si       0.98757    0.49227    0.67470    1.000
    N758     N        0.06777    0.47946    0.67716    1.000
    Si759    Si       0.19964    0.48425    0.73091    1.000
    N760     N        0.17372    0.51873    0.73844    1.000
    Si761    Si       0.22188    0.50411    0.65279    1.000
    N762     N        0.14784    0.48707    0.68328    1.000
    N763     N        0.22656    0.49670    0.69877    1.000
    Si764    Si       0.15319    0.52699    0.69779    1.000
    N765     N        0.07186    0.52560    0.81237    1.000
    Si766    Si       0.10288    0.50001    0.82933    1.000
    N767     N        0.00170    0.52504    0.82835    1.000
    N768     N        0.07049    0.49859    0.75024    1.000
    Si769    Si       0.06473    0.53648    0.76977    1.000
    N770     N        0.09719    0.48300    0.86997    1.000
    N771     N        0.14674    0.50708    0.82815    1.000
    N772     N        0.21524    0.50101    0.81329    1.000
    Si773    Si       0.18155    0.48000    0.83348    1.000
    N774     N        0.05308    0.53021    0.87823    1.000
    N775     N        0.05895    0.48995    0.92889    1.000
    Si776    Si       0.03269    0.52218    0.91515    1.000
    Si777    Si       0.09555    0.50277    0.90983    1.000
    N778     N        0.99661    0.50407    0.89809    1.000
    N779     N        0.99466    0.49139    0.96482    1.000
    Si780    Si       0.02591    0.47808    0.99493    1.000
    Si781    Si       0.20133    0.49282    0.98666    1.000
    N782     N        0.16583    0.52413    0.97928    1.000
    Si783    Si       0.13919    0.49215    0.97062    1.000
    N784     N        0.23355    0.52181    0.99418    1.000
    N785     N        0.21667    0.49077    0.94365    1.000
    N786     N        0.01926    0.57758    0.04101    1.000
    Si787    Si       0.00830    0.54589    0.01449    1.000
    N788     N        0.02052    0.58178    0.11212    1.000
    N789     N        0.08397    0.59233    0.08407    1.000
    Si790    Si       0.03935    0.59299    0.07590    1.000
    Si791    Si       0.11054    0.55937    0.07231    1.000
    Si792    Si       0.11950    0.58965    0.00375    1.000
    N793     N        0.14728    0.56249    0.09897    1.000
    Si794    Si       0.17171    0.57121    0.06290    1.000
    N795     N        0.13641    0.57337    0.03910    1.000
    N796     N        0.20045    0.54119    0.05497    1.000
    N797     N        0.02357    0.57783    0.18502    1.000
    N798     N        0.08141    0.55473    0.15180    1.000
    Si799    Si       0.03786    0.56222    0.14541    1.000
    Si800    Si       0.10365    0.59106    0.16596    1.000
    Si801    Si       0.15494    0.55331    0.13973    1.000
    Si802    Si       0.20853    0.59141    0.17585    1.000
    Si803    Si       0.15953    0.54675    0.21599    1.000
    N804     N        0.13573    0.56475    0.18216    1.000
    N805     N        0.19613    0.55533    0.15212    1.000
    N806     N        0.19182    0.58078    0.21380    1.000
    N807     N        0.06623    0.56740    0.30792    1.000
    Si808    Si       0.09154    0.57917    0.34207    1.000
    N809     N        0.10371    0.58908    0.25599    1.000
    Si810    Si       0.18450    0.59315    0.25577    1.000
    Si811    Si       0.12119    0.55928    0.28288    1.000
    N812     N        0.13110    0.57059    0.32296    1.000
    Si813    Si       0.17103    0.56765    0.34110    1.000
    N814     N        0.16263    0.55616    0.26378    1.000
    N815     N        0.08979    0.55780    0.38037    1.000
    Si816    Si       0.04763    0.56721    0.48283    1.000
    N817     N        0.06102    0.55293    0.44398    1.000
    Si818    Si       0.09015    0.57364    0.42103    1.000
    N819     N        0.00798    0.57741    0.39122    1.000
    N820     N        0.00564    0.57319    0.48825    1.000
    N821     N        0.16904    0.56201    0.38451    1.000
    Si822    Si       0.15729    0.59065    0.41462    1.000
    N823     N        0.12871    0.56674    0.43757    1.000
    N824     N        0.17244    0.56265    0.48977    1.000
    Si825    Si       0.05993    0.54761    0.58784    1.000
    N826     N        0.06504    0.58878    0.57597    1.000
    N827     N        0.11570    0.57560    0.53413    1.000
    Si828    Si       0.17562    0.55090    0.53398    1.000
    N829     N        0.17928    0.58774    0.55474    1.000
    N830     N        0.13794    0.54698    0.62104    1.000
    N831     N        0.02267    0.58445    0.63345    1.000
    Si832    Si       0.01997    0.56708    0.72112    1.000
    Si833    Si       0.02783    0.55100    0.65997    1.000
    Si834    Si       0.10470    0.56004    0.64595    1.000
    N835     N        0.05008    0.54540    0.69762    1.000
    N836     N        0.99004    0.55990    0.68858    1.000
    N837     N        0.06972    0.53773    0.63050    1.000
    Si838    Si       0.11013    0.57979    0.71866    1.000
    N839     N        0.11758    0.55081    0.68637    1.000
    N840     N        0.18080    0.55192    0.67222    1.000
    Si841    Si       0.18517    0.58722    0.70010    1.000
    Si842    Si       0.18017    0.55881    0.63033    1.000
    N843     N        0.22141    0.58151    0.72266    1.000
    N844     N        0.15334    0.57914    0.72753    1.000
    N845     N        0.09315    0.56751    0.75599    1.000
    N846     N        0.02386    0.58271    0.83382    1.000
    N847     N        0.02285    0.54814    0.76047    1.000
    Si848    Si       0.03989    0.54178    0.83991    1.000
    N849     N        0.09474    0.59701    0.81922    1.000
    Si850    Si       0.11841    0.59232    0.78494    1.000
    N851     N        0.12782    0.56338    0.86170    1.000
    Si852    Si       0.17996    0.55624    0.75716    1.000
    N853     N        0.15515    0.56623    0.79302    1.000
    N854     N        0.19163    0.55535    0.85185    1.000
    Si855    Si       0.15512    0.54863    0.83144    1.000
    N856     N        0.21730    0.55785    0.78063    1.000
    Si857    Si       0.22253    0.54262    0.82048    1.000
    N858     N        0.03623    0.56017    0.93998    1.000
    Si859    Si       0.07844    0.56961    0.95004    1.000
    Si860    Si       0.00529    0.59032    0.95057    1.000
    N861     N        0.09173    0.55725    0.99005    1.000
    N862     N        0.10274    0.54458    0.92589    1.000
    N863     N        0.21552    0.58235    0.95336    1.000
    Si864    Si       0.13455    0.56354    0.90551    1.000
    Si865    Si       0.17603    0.56242    0.95832    1.000
    N866     N        0.14613    0.59279    0.96924    1.000
    N867     N        0.17233    0.55173    0.91630    1.000
    Si868    Si       0.20593    0.56268    0.89163    1.000
    N869     N        0.02381    0.63365    0.07037    1.000
    Si870    Si       0.00025    0.60719    0.01387    1.000
    Si871    Si       0.10150    0.62693    0.10143    1.000
    N872     N        0.09685    0.62482    0.01098    1.000
    Si873    Si       0.23401    0.61333    0.05354    1.000
    N874     N        0.12766    0.64162    0.07026    1.000
    N875     N        0.19154    0.61092    0.06249    1.000
    Si876    Si       0.16953    0.64585    0.07231    1.000
    N877     N        0.08072    0.61968    0.18915    1.000
    N878     N        0.00842    0.64495    0.18958    1.000
    Si879    Si       0.03812    0.61518    0.20289    1.000
    N880     N        0.19047    0.63249    0.17059    1.000
    Si881    Si       0.15586    0.64315    0.14691    1.000
    N882     N        0.12266    0.61574    0.13763    1.000
    Si883    Si       0.21444    0.66105    0.19359    1.000
    N884     N        0.09165    0.62309    0.35129    1.000
    N885     N        0.08111    0.63644    0.28768    1.000
    N886     N        0.03061    0.60750    0.24662    1.000
    Si887    Si       0.06496    0.59738    0.27440    1.000
    Si888    Si       0.11733    0.63050    0.26258    1.000
    Si889    Si       0.98827    0.60263    0.26026    1.000
    N890     N        0.15924    0.62628    0.26999    1.000
    Si891    Si       0.16644    0.63906    0.35913    1.000
    N892     N        0.22368    0.60596    0.26991    1.000
    Si893    Si       0.22899    0.61811    0.35817    1.000
    N894     N        0.18858    0.60652    0.34010    1.000
    N895     N        0.07230    0.60248    0.49019    1.000
    N896     N        0.08207    0.61740    0.42336    1.000
    Si897    Si       0.07852    0.63591    0.46254    1.000
    Si898    Si       0.10003    0.63710    0.39026    1.000
    N899     N        0.00275    0.64770    0.40731    1.000
    Si900    Si       0.18381    0.60314    0.48186    1.000
    N901     N        0.18558    0.61030    0.43972    1.000
    Si902    Si       0.19833    0.64991    0.42419    1.000
    N903     N        0.20366    0.65172    0.38041    1.000
    N904     N        0.14363    0.62540    0.39131    1.000
    N905     N        0.04256    0.63658    0.53480    1.000
    Si906    Si       0.01531    0.64168    0.56946    1.000
    Si907    Si       0.07723    0.60794    0.53556    1.000
    N908     N        0.04248    0.64931    0.60206    1.000
    Si909    Si       0.05639    0.60779    0.61610    1.000
    N910     N        0.11132    0.63735    0.54392    1.000
    Si911    Si       0.14294    0.60762    0.54075    1.000
    N912     N        0.16155    0.63400    0.50535    1.000
    Si913    Si       0.20493    0.60988    0.57982    1.000
    N914     N        0.19709    0.64983    0.56353    1.000
    Si915    Si       0.20203    0.65020    0.52079    1.000
    N916     N        0.22114    0.61815    0.49884    1.000
    N917     N        0.10359    0.62108    0.70877    1.000
    Si918    Si       0.09530    0.63379    0.66998    1.000
    N919     N        0.02955    0.60792    0.71991    1.000
    Si920    Si       0.02637    0.64750    0.73642    1.000
    Si921    Si       0.10364    0.64982    0.74078    1.000
    N922     N        0.09281    0.60206    0.63926    1.000
    N923     N        0.19451    0.62974    0.69195    1.000
    N924     N        0.18775    0.60151    0.62010    1.000
    Si925    Si       0.20284    0.63104    0.64937    1.000
    Si926    Si       0.05577    0.61014    0.83423    1.000
    N927     N        0.00964    0.64674    0.77800    1.000
    Si928    Si       0.11514    0.60600    0.86067    1.000
    N929     N        0.05739    0.65391    0.82874    1.000
    N930     N        0.12647    0.63123    0.77294    1.000
    N931     N        0.12433    0.64868    0.85289    1.000
    N932     N        0.19508    0.65898    0.76746    1.000
    N933     N        0.07219    0.60719    0.87670    1.000
    Si934    Si       0.06832    0.63787    0.98138    1.000
    Si935    Si       0.05810    0.62765    0.91212    1.000
    N936     N        0.08465    0.61407    0.94521    1.000
    N937     N        0.01620    0.61980    0.91976    1.000
    N938     N        0.02954    0.62207    0.98446    1.000
    N939     N        0.20694    0.65022    0.98099    1.000
    N940     N        0.13555    0.60784    0.90200    1.000
    Si941    Si       0.21833    0.64457    0.87538    1.000
    Si942    Si       0.23213    0.61582    0.97761    1.000
    N943     N        0.22522    0.60196    0.88565    1.000
    Si944    Si       0.12865    0.62214    0.94079    1.000
    N945     N        0.07843    0.68533    0.05329    1.000
    Si946    Si       0.04719    0.66883    0.07686    1.000
    N947     N        0.02040    0.70139    0.07343    1.000
    Si948    Si       0.99203    0.70184    0.10602    1.000
    Si949    Si       0.10617    0.65859    0.03569    1.000
    N950     N        0.07196    0.65857    0.11232    1.000
    N951     N        0.12701    0.68718    0.01097    1.000
    N952     N        0.18028    0.67771    0.04449    1.000
    Si953    Si       0.21468    0.67489    0.01698    1.000
    Si954    Si       0.15427    0.70944    0.03558    1.000
    N955     N        0.17634    0.66119    0.11125    1.000
    N956     N        0.22841    0.71259    0.09626    1.000
    Si957    Si       0.09896    0.66021    0.19176    1.000
    Si958    Si       0.02243    0.68537    0.18292    1.000
    N959     N        0.01977    0.70182    0.14074    1.000
    N960     N        0.06628    0.68477    0.17890    1.000
    Si961    Si       0.06227    0.69422    0.13649    1.000
    N962     N        0.11610    0.66114    0.23133    1.000
    N963     N        0.22694    0.68631    0.16008    1.000
    N964     N        0.13414    0.67390    0.17089    1.000
    Si965    Si       0.14883    0.69229    0.23339    1.000
    N966     N        0.18607    0.67447    0.22191    1.000
    Si967    Si       0.20088    0.69275    0.12470    1.000
    N968     N        0.09767    0.69401    0.32757    1.000
    N969     N        0.04951    0.67261    0.35761    1.000
    Si970    Si       0.00934    0.66394    0.36794    1.000
    Si971    Si       0.07617    0.65490    0.32640    1.000
    Si972    Si       0.08023    0.70228    0.36720    1.000
    N973     N        0.15121    0.69564    0.27485    1.000
    N974     N        0.21891    0.67290    0.28201    1.000
    N975     N        0.16175    0.66967    0.32953    1.000
    Si976    Si       0.13701    0.70413    0.31454    1.000
    Si977    Si       0.17797    0.66194    0.28864    1.000
    Si978    Si       0.21301    0.69419    0.36679    1.000
    Si979    Si       0.00697    0.66427    0.44589    1.000
    N980     N        0.00690    0.70777    0.43891    1.000
    N981     N        0.10248    0.68035    0.40073    1.000
    N982     N        0.04632    0.66424    0.46415    1.000
    Si983    Si       0.04386    0.71049    0.46625    1.000
    N984     N        0.98900    0.65876    0.48677    1.000
    N985     N        0.17037    0.68007    0.43365    1.000
    N986     N        0.11089    0.66531    0.46926    1.000
    Si987    Si       0.12712    0.68517    0.43465    1.000
    Si988    Si       0.23768    0.69478    0.46776    1.000
    N989     N        0.23887    0.65670    0.44435    1.000
    N990     N        0.07081    0.70279    0.57004    1.000
    Si991    Si       0.02317    0.66894    0.50958    1.000
    Si992    Si       0.05401    0.69255    0.61006    1.000
    N993     N        0.99716    0.67495    0.54979    1.000
    N994     N        0.04083    0.71089    0.50957    1.000
    Si995    Si       0.11479    0.69853    0.56773    1.000
    N996     N        0.13625    0.69932    0.52746    1.000
    N997     N        0.14256    0.68251    0.59623    1.000
    Si998    Si       0.18635    0.68101    0.58933    1.000
    N999     N        0.21616    0.68911    0.50632    1.000
    Si1000   Si       0.12819    0.65999    0.50888    1.000
    Si1001   Si       0.01718    0.66635    0.66385    1.000
    N1002    N        0.01856    0.70305    0.63960    1.000
    N1003    N        0.00721    0.67369    0.70758    1.000
    Si1004   Si       0.08616    0.69542    0.66912    1.000
    N1005    N        0.05955    0.66007    0.66875    1.000
    N1006    N        0.08454    0.71728    0.63134    1.000
    N1007    N        0.19127    0.66909    0.63008    1.000
    N1008    N        0.13377    0.68195    0.73780    1.000
    N1009    N        0.12126    0.66778    0.66410    1.000
    N1010    N        0.20429    0.69676    0.71468    1.000
    Si1011   Si       0.15022    0.68479    0.63819    1.000
    Si1012   Si       0.20705    0.65697    0.72528    1.000
    Si1013   Si       0.04390    0.67168    0.79096    1.000
    Si1014   Si       0.08529    0.66933    0.85841    1.000
    N1015    N        0.06559    0.66361    0.75342    1.000
    N1016    N        0.02479    0.70775    0.80593    1.000
    N1017    N        0.09086    0.71045    0.84765    1.000
    Si1018   Si       0.15192    0.66635    0.77568    1.000
    N1019    N        0.15284    0.69639    0.80792    1.000
    Si1020   Si       0.21713    0.67503    0.80444    1.000
    Si1021   Si       0.15591    0.67858    0.84757    1.000
    N1022    N        0.19673    0.66092    0.84153    1.000
    N1023    N        0.07385    0.67998    0.96863    1.000
    N1024    N        0.00827    0.69241    0.94195    1.000
    N1025    N        0.06179    0.66773    0.89663    1.000
    Si1026   Si       0.02545    0.69148    0.90013    1.000
    Si1027   Si       0.04077    0.70916    0.96743    1.000
    N1028    N        0.99211    0.67296    0.87918    1.000
    N1029    N        0.20957    0.66446    0.91174    1.000
    Si1030   Si       0.11723    0.69028    0.96814    1.000
    N1031    N        0.14372    0.66197    0.94861    1.000
    Si1032   Si       0.18703    0.66964    0.94653    1.000
    N1033    N        0.15378    0.70896    0.88129    1.000
    N1034    N        0.07223    0.75015    0.04686    1.000
    Si1035   Si       0.03134    0.73324    0.04488    1.000
    N1036    N        0.02258    0.72850    0.00158    1.000
    N1037    N        0.07948    0.72670    0.11330    1.000
    N1038    N        0.00260    0.76623    0.05193    1.000
    Si1039   Si       0.09334    0.72100    0.07215    1.000
    Si1040   Si       0.99192    0.76192    0.00607    1.000
    N1041    N        0.16808    0.74193    0.01161    1.000
    Si1042   Si       0.15455    0.75081    0.10249    1.000
    Si1043   Si       0.22573    0.75643    0.10803    1.000
    N1044    N        0.13527    0.72741    0.07092    1.000
    N1045    N        0.18953    0.77073    0.08802    1.000
    N1046    N        0.23188    0.71182    0.00250    1.000
    N1047    N        0.06990    0.76445    0.21067    1.000
    Si1048   Si       0.09265    0.76204    0.13435    1.000
    N1049    N        0.00597    0.71552    0.21108    1.000
    Si1050   Si       0.11821    0.76162    0.20989    1.000
    N1051    N        0.11373    0.74608    0.16772    1.000
    N1052    N        0.16894    0.72249    0.13414    1.000
    N1053    N        0.22473    0.76365    0.15122    1.000
    Si1054   Si       0.19446    0.74796    0.22659    1.000
    N1055    N        0.15503    0.73254    0.21112    1.000
    Si1056   Si       0.14495    0.71658    0.17017    1.000
    Si1057   Si       0.23856    0.72911    0.17078    1.000
    N1058    N        0.01186    0.75480    0.32051    1.000
    Si1059   Si       0.03748    0.76347    0.35313    1.000
    N1060    N        0.04917    0.72870    0.26542    1.000
    Si1061   Si       0.07034    0.76333    0.25414    1.000
    Si1062   Si       0.00908    0.72025    0.25471    1.000
    N1063    N        0.99101    0.76129    0.25364    1.000
    N1064    N        0.11278    0.76096    0.25897    1.000
    N1065    N        0.20619    0.74885    0.26707    1.000
    Si1066   Si       0.18716    0.74863    0.34469    1.000
    N1067    N        0.15001    0.74540    0.32240    1.000
    N1068    N        0.21740    0.71931    0.33154    1.000
    Si1069   Si       0.22635    0.71615    0.28950    1.000
    N1070    N        0.07242    0.74396    0.37440    1.000
    Si1071   Si       0.05469    0.76109    0.41182    1.000
    N1072    N        0.06781    0.74063    0.44664    1.000
    N1073    N        0.01579    0.75900    0.39282    1.000
    Si1074   Si       0.10669    0.75447    0.45817    1.000
    Si1075   Si       0.99056    0.72187    0.40258    1.000
    N1076    N        0.22057    0.72392    0.44000    1.000
    Si1077   Si       0.23012    0.76225    0.42200    1.000
    N1078    N        0.18066    0.72283    0.38099    1.000
    Si1079   Si       0.17795    0.72509    0.42665    1.000
    N1080    N        0.13650    0.72879    0.43988    1.000
    Si1081   Si       0.04792    0.73269    0.54835    1.000
    N1082    N        0.01019    0.73919    0.56828    1.000
    N1083    N        0.06539    0.77197    0.54844    1.000
    Si1084   Si       0.11957    0.74376    0.61739    1.000
    N1085    N        0.11633    0.76156    0.49929    1.000
    N1086    N        0.12466    0.74118    0.57262    1.000
    N1087    N        0.18270    0.75479    0.52463    1.000
    Si1088   Si       0.14036    0.74286    0.53096    1.000
    Si1089   Si       0.21217    0.72525    0.53439    1.000
    N1090    N        0.20719    0.71808    0.57718    1.000
    Si1091   Si       0.06843    0.75726    0.70209    1.000
    Si1092   Si       0.00172    0.73747    0.66245    1.000
    N1093    N        0.03239    0.76297    0.68004    1.000
    N1094    N        0.08860    0.71870    0.70346    1.000
    N1095    N        0.15067    0.72886    0.64333    1.000
    N1096    N        0.14976    0.74671    0.71178    1.000
    Si1097   Si       0.23366    0.72718    0.70790    1.000
    Si1098   Si       0.17406    0.74746    0.67547    1.000
    Si1099   Si       0.12054    0.72193    0.73253    1.000
    N1100    N        0.21703    0.74662    0.67363    1.000
    Si1101   Si       0.05093    0.72601    0.83560    1.000
    N1102    N        0.05769    0.76525    0.81663    1.000
    N1103    N        0.99506    0.76933    0.77836    1.000
    N1104    N        0.11395    0.73950    0.77285    1.000
    Si1105   Si       0.14801    0.73869    0.80145    1.000
    N1106    N        0.14211    0.75745    0.84158    1.000
    N1107    N        0.17664    0.76806    0.78260    1.000
    N1108    N        0.22704    0.71656    0.79686    1.000
    N1109    N        0.02963    0.72710    0.87445    1.000
    N1110    N        0.05278    0.73759    0.93777    1.000
    N1111    N        0.09289    0.75987    0.89557    1.000
    Si1112   Si       0.04984    0.75613    0.89839    1.000
    Si1113   Si       0.09112    0.75911    0.94037    1.000
    Si1114   Si       0.19948    0.73450    0.98220    1.000
    Si1115   Si       0.11895    0.73575    0.86974    1.000
    Si1116   Si       0.18309    0.73077    0.90576    1.000
    N1117    N        0.11908    0.72982    0.95215    1.000
    N1118    N        0.22436    0.73397    0.89082    1.000
    N1119    N        0.17062    0.77337    0.90519    1.000
    N1120    N        0.18851    0.71430    0.94651    1.000
    N1121    N        0.06177    0.80812    0.07437    1.000
    Si1122   Si       0.08273    0.79155    0.04198    1.000
    Si1123   Si       0.03754    0.80899    0.11267    1.000
    N1124    N        0.99536    0.79863    0.11470    1.000
    N1125    N        0.06908    0.82707    0.01522    1.000
    N1126    N        0.12065    0.79252    0.02012    1.000
    Si1127   Si       0.19207    0.81065    0.07235    1.000
    N1128    N        0.18565    0.81286    0.02960    1.000
    Si1129   Si       0.16144    0.78368    0.00555    1.000
    N1130    N        0.23450    0.81751    0.07796    1.000
    N1131    N        0.12770    0.78264    0.11469    1.000
    N1132    N        0.06467    0.82940    0.20013    1.000
    N1133    N        0.05674    0.78468    0.14473    1.000
    Si1134   Si       0.04712    0.79252    0.18569    1.000
    N1135    N        0.00078    0.79144    0.19007    1.000
    N1136    N        0.19594    0.78859    0.21209    1.000
    N1137    N        0.18026    0.82312    0.15423    1.000
    N1138    N        0.12912    0.80336    0.20680    1.000
    Si1139   Si       0.14668    0.81930    0.12792    1.000
    Si1140   Si       0.16538    0.81327    0.23015    1.000
    Si1141   Si       0.21302    0.80084    0.17331    1.000
    N1142    N        0.04525    0.80520    0.34700    1.000
    N1143    N        0.04568    0.79860    0.26303    1.000
    Si1144   Si       0.00278    0.81864    0.34384    1.000
    Si1145   Si       0.01244    0.78181    0.28550    1.000
    Si1146   Si       0.08514    0.82441    0.34452    1.000
    N1147    N        0.10574    0.80187    0.31445    1.000
    N1148    N        0.98998    0.81655    0.30150    1.000
    N1149    N        0.16359    0.79966    0.27252    1.000
    Si1150   Si       0.20465    0.78944    0.28472    1.000
    N1151    N        0.22973    0.82424    0.27256    1.000
    N1152    N        0.20556    0.78599    0.32772    1.000
    Si1153   Si       0.13324    0.77618    0.29421    1.000
    N1154    N        0.05304    0.80380    0.42638    1.000
    Si1155   Si       0.02192    0.81358    0.45466    1.000
    Si1156   Si       0.09182    0.82178    0.41874    1.000
    N1157    N        0.01673    0.79259    0.49369    1.000
    N1158    N        0.11003    0.82879    0.38012    1.000
    Si1159   Si       0.15897    0.79887    0.44212    1.000
    N1160    N        0.16051    0.80701    0.48628    1.000
    N1161    N        0.11715    0.79210    0.43757    1.000
    N1162    N        0.18859    0.77249    0.42776    1.000
    Si1163   Si       0.04955    0.80285    0.52042    1.000
    N1164    N        0.10204    0.78413    0.61438    1.000
    Si1165   Si       0.10144    0.78051    0.57192    1.000
    N1166    N        0.08184    0.82373    0.50171    1.000
    Si1167   Si       0.19306    0.79712    0.51729    1.000
    N1168    N        0.12996    0.80390    0.54873    1.000
    Si1169   Si       0.22002    0.82099    0.59988    1.000
    Si1170   Si       0.12034    0.80432    0.50578    1.000
    N1171    N        0.23236    0.78811    0.57539    1.000
    N1172    N        0.23617    0.79976    0.50963    1.000
    N1173    N        0.17723    0.83021    0.60301    1.000
    N1174    N        0.00814    0.81468    0.71693    1.000
    Si1175   Si       0.02173    0.80670    0.67466    1.000
    N1176    N        0.09586    0.78880    0.68831    1.000
    Si1177   Si       0.09467    0.80853    0.64861    1.000
    N1178    N        0.05358    0.82589    0.65235    1.000
    N1179    N        0.05982    0.76828    0.74417    1.000
    Si1180   Si       0.23009    0.83182    0.67528    1.000
    N1181    N        0.15281    0.81670    0.72948    1.000
    Si1182   Si       0.13740    0.78767    0.70132    1.000
    N1183    N        0.22643    0.80612    0.64032    1.000
    N1184    N        0.22252    0.82290    0.71786    1.000
    N1185    N        0.16179    0.78958    0.66612    1.000
    Si1186   Si       0.16301    0.82776    0.64547    1.000
    Si1187   Si       0.02187    0.78590    0.81149    1.000
    N1188    N        0.03726    0.81587    0.78313    1.000
    N1189    N        0.99352    0.78757    0.84365    1.000
    Si1190   Si       0.02436    0.79072    0.74926    1.000
    N1191    N        0.11401    0.80240    0.78855    1.000
    Si1192   Si       0.08500    0.77179    0.78244    1.000
    N1193    N        0.14262    0.82709    0.85339    1.000
    Si1194   Si       0.15234    0.80416    0.76937    1.000
    Si1195   Si       0.20346    0.79460    0.80416    1.000
    N1196    N        0.20545    0.78636    0.84799    1.000
    Si1197   Si       0.16504    0.78912    0.86435    1.000
    N1198    N        0.18295    0.82873    0.78847    1.000
    Si1199   Si       0.06356    0.82414    0.92540    1.000
    Si1200   Si       0.04406    0.81339    0.98346    1.000
    N1201    N        0.07786    0.79635    0.95858    1.000
    N1202    N        0.03541    0.79652    0.90208    1.000
    Si1203   Si       0.99481    0.80098    0.88470    1.000
    N1204    N        0.00263    0.80258    0.99463    1.000
    Si1205   Si       0.11047    0.81712    0.98586    1.000
    Si1206   Si       0.18049    0.79158    0.94209    1.000
    N1207    N        0.20364    0.77619    0.97451    1.000
    N1208    N        0.20592    0.82385    0.93256    1.000
    N1209    N        0.14725    0.79968    0.96669    1.000
    Si1210   Si       0.06198    0.84765    0.05535    1.000
    N1211    N        0.02272    0.86442    0.06181    1.000
    N1212    N        0.09234    0.86762    0.08225    1.000
    Si1213   Si       0.02098    0.87825    0.10421    1.000
    Si1214   Si       0.99928    0.88918    0.03220    1.000
    N1215    N        0.20648    0.87327    0.05384    1.000
    Si1216   Si       0.20713    0.84976    0.01739    1.000
    Si1217   Si       0.16604    0.87842    0.07111    1.000
    N1218    N        0.16410    0.83873    0.09341    1.000
    N1219    N        0.14058    0.88600    0.03788    1.000
    Si1220   Si       0.23762    0.88642    0.08126    1.000
    N1221    N        0.24167    0.83255    0.99829    1.000
    Si1222   Si       0.08814    0.86475    0.12492    1.000
    N1223    N        0.04437    0.85113    0.12670    1.000
    N1224    N        0.00869    0.85348    0.22428    1.000
    Si1225   Si       0.04525    0.83653    0.24115    1.000
    N1226    N        0.11325    0.83961    0.14803    1.000
    Si1227   Si       0.10589    0.83470    0.18996    1.000
    N1228    N        0.18099    0.85328    0.22983    1.000
    N1229    N        0.17274    0.88828    0.16595    1.000
    Si1230   Si       0.15858    0.88150    0.20573    1.000
    N1231    N        0.11658    0.87281    0.20849    1.000
    N1232    N        0.22495    0.88656    0.12347    1.000
    Si1233   Si       0.20247    0.86111    0.15074    1.000
    N1234    N        0.23419    0.83865    0.17674    1.000
    N1235    N        0.07527    0.86678    0.33191    1.000
    N1236    N        0.06252    0.87426    0.25457    1.000
    Si1237   Si       0.03460    0.87826    0.34397    1.000
    N1238    N        0.00404    0.85560    0.36680    1.000
    N1239    N        0.01184    0.88847    0.30769    1.000
    N1240    N        0.17954    0.85854    0.35240    1.000
    Si1241   Si       0.21471    0.86119    0.25575    1.000
    Si1242   Si       0.17125    0.88701    0.31699    1.000
    N1243    N        0.20484    0.88603    0.28981    1.000
    N1244    N        0.09867    0.85846    0.44117    1.000
    N1245    N        0.03201    0.85384    0.46650    1.000
    Si1246   Si       0.07501    0.85957    0.47764    1.000
    Si1247   Si       0.19211    0.86014    0.44164    1.000
    Si1248   Si       0.21989    0.86716    0.37366    1.000
    N1249    N        0.16340    0.88643    0.46100    1.000
    Si1250   Si       0.12893    0.88740    0.43480    1.000
    N1251    N        0.21857    0.88204    0.41502    1.000
    N1252    N        0.16875    0.83423    0.41885    1.000
    N1253    N        0.22064    0.84799    0.47197    1.000
    Si1254   Si       0.14884    0.84806    0.38312    1.000
    Si1255   Si       0.03540    0.86548    0.57415    1.000
    N1256    N        0.06560    0.87532    0.60122    1.000
    N1257    N        0.99887    0.85571    0.59447    1.000
    Si1258   Si       0.98695    0.83286    0.55783    1.000
    N1259    N        0.03172    0.82845    0.54948    1.000
    N1260    N        0.12959    0.86849    0.56616    1.000
    Si1261   Si       0.22163    0.85768    0.51517    1.000
    N1262    N        0.19070    0.83698    0.53715    1.000
    Si1263   Si       0.15642    0.83578    0.56470    1.000
    N1264    N        0.24190    0.85832    0.59504    1.000
    Si1265   Si       0.05242    0.86877    0.64243    1.000
    N1266    N        0.01522    0.88326    0.65604    1.000
    N1267    N        0.08066    0.88859    0.67229    1.000
    N1268    N        0.99067    0.88554    0.74532    1.000
    N1269    N        0.17427    0.88165    0.73897    1.000
    N1270    N        0.18688    0.85133    0.67553    1.000
    Si1271   Si       0.18535    0.84402    0.72028    1.000
    N1272    N        0.12187    0.84298    0.64771    1.000
    Si1273   Si       0.11933    0.88538    0.65387    1.000
    Si1274   Si       0.04626    0.85525    0.79907    1.000
    N1275    N        0.00524    0.86896    0.81237    1.000
    Si1276   Si       0.00368    0.87767    0.85465    1.000
    N1277    N        0.07655    0.84660    0.82891    1.000
    Si1278   Si       0.07748    0.86780    0.86533    1.000
    N1279    N        0.05701    0.88863    0.77190    1.000
    Si1280   Si       0.11756    0.83548    0.81783    1.000
    N1281    N        0.12884    0.86937    0.79328    1.000
    Si1282   Si       0.16917    0.87095    0.78138    1.000
    N1283    N        0.11613    0.88836    0.86300    1.000
    Si1284   Si       0.01650    0.88195    0.95801    1.000
    N1285    N        0.09086    0.84474    0.89997    1.000
    N1286    N        0.04265    0.84755    0.95660    1.000
    Si1287   Si       0.07159    0.87301    0.98826    1.000
    N1288    N        0.99158    0.87157    0.99246    1.000
    N1289    N        0.11161    0.86072    0.97821    1.000
    N1290    N        0.98997    0.84345    0.87977    1.000
    Si1291   Si       0.14474    0.88471    0.99512    1.000
    Si1292   Si       0.19196    0.86377    0.94079    1.000
    N1293    N        0.15823    0.87152    0.91386    1.000
    N1294    N        0.18275    0.86938    0.98334    1.000
    Si1295   Si       0.13198    0.85511    0.88682    1.000
    N1296    N        0.01403    0.92893    0.03389    1.000
    Si1297   Si       0.04891    0.92866    0.00838    1.000
    Si1298   Si       0.10293    0.89872    0.05470    1.000
    N1299    N        0.07137    0.89508    0.02640    1.000
    N1300    N        0.10575    0.94324    0.06308    1.000
    N1301    N        0.04148    0.91667    0.11298    1.000
    N1302    N        0.15462    0.91211    0.09713    1.000
    Si1303   Si       0.01467    0.89496    0.21224    1.000
    Si1304   Si       0.08362    0.89720    0.22289    1.000
    N1305    N        0.10253    0.90300    0.14167    1.000
    N1306    N        0.05331    0.90614    0.19387    1.000
    Si1307   Si       0.06392    0.91934    0.15446    1.000
    Si1308   Si       0.14404    0.91268    0.14078    1.000
    Si1309   Si       0.18066    0.94554    0.18997    1.000
    N1310    N        0.22326    0.93949    0.18203    1.000
    N1311    N        0.16379    0.92054    0.22226    1.000
    N1312    N        0.06673    0.92677    0.30004    1.000
    Si1313   Si       0.03823    0.90381    0.27590    1.000
    N1314    N        0.10543    0.92587    0.34932    1.000
    Si1315   Si       0.09937    0.89929    0.31389    1.000
    Si1316   Si       0.06433    0.93927    0.34535    1.000
    N1317    N        0.10184    0.93083    0.24540    1.000
    N1318    N        0.01291    0.92253    0.24732    1.000
    N1319    N        0.03848    0.91459    0.36834    1.000
    N1320    N        0.13569    0.89392    0.29348    1.000
    N1321    N        0.17396    0.92468    0.34028    1.000
    Si1322   Si       0.14371    0.92377    0.26048    1.000
    Si1323   Si       0.23982    0.90467    0.30993    1.000
    Si1324   Si       0.14371    0.92666    0.37185    1.000
    Si1325   Si       0.07672    0.93515    0.46112    1.000
    Si1326   Si       0.01392    0.92485    0.40514    1.000
    N1327    N        0.04050    0.92547    0.44015    1.000
    N1328    N        0.06826    0.90178    0.49197    1.000
    Si1329   Si       0.02721    0.89677    0.47150    1.000
    N1330    N        0.11160    0.92680    0.43937    1.000
    Si1331   Si       0.23386    0.91708    0.43453    1.000
    N1332    N        0.14223    0.88969    0.39506    1.000
    N1333    N        0.20336    0.93873    0.45519    1.000
    Si1334   Si       0.18010    0.91758    0.48670    1.000
    N1335    N        0.09635    0.92744    0.55405    1.000
    Si1336   Si       0.05937    0.92506    0.53017    1.000
    N1337    N        0.02911    0.89605    0.54368    1.000
    Si1338   Si       0.10149    0.89464    0.58313    1.000
    N1339    N        0.22650    0.92550    0.57217    1.000
    N1340    N        0.20936    0.89883    0.51196    1.000
    Si1341   Si       0.23298    0.89978    0.60633    1.000
    N1342    N        0.15008    0.93827    0.50798    1.000
    Si1343   Si       0.15785    0.93252    0.62034    1.000
    N1344    N        0.04101    0.92727    0.71505    1.000
    Si1345   Si       0.01819    0.92168    0.67838    1.000
    Si1346   Si       0.08334    0.91817    0.70579    1.000
    N1347    N        0.11284    0.91168    0.73915    1.000
    N1348    N        0.12149    0.90974    0.61776    1.000
    N1349    N        0.14769    0.90419    0.67932    1.000
    Si1350   Si       0.18948    0.89446    0.66829    1.000
    N1351    N        0.21153    0.91973    0.69324    1.000
    N1352    N        0.19328    0.90630    0.62722    1.000
    Si1353   Si       0.15404    0.91638    0.71983    1.000
    N1354    N        0.10084    0.93051    0.80900    1.000
    Si1355   Si       0.10034    0.89785    0.78030    1.000
    Si1356   Si       0.02462    0.91145    0.75361    1.000
    Si1357   Si       0.04403    0.93671    0.86690    1.000
    Si1358   Si       0.11549    0.92967    0.85152    1.000
    Si1359   Si       0.23542    0.89559    0.79095    1.000
    Si1360   Si       0.18541    0.93230    0.83463    1.000
    N1361    N        0.19353    0.90254    0.80162    1.000
    N1362    N        0.19709    0.90675    0.86840    1.000
    N1363    N        0.04347    0.89273    0.86572    1.000
    N1364    N        0.04809    0.90703    0.97158    1.000
    N1365    N        0.08575    0.94952    0.87519    1.000
    Si1366   Si       0.23590    0.90301    0.89101    1.000
    Si1367   Si       0.23307    0.92247    0.96011    1.000
    Si1368   Si       0.17481    0.90951    0.90621    1.000
    N1369    N        0.15553    0.94635    0.91712    1.000
    N1370    N        0.21382    0.89899    0.92914    1.000
    N1371    N        0.14234    0.92591    0.98293    1.000
    N1372    N        0.05209    0.98810    0.08032    1.000
    Si1373   Si       0.08135    0.97794    0.04793    1.000
    N1374    N        0.06627    0.96734    0.00890    1.000
    Si1375   Si       0.03577    0.95957    0.10905    1.000
    N1376    N        0.99758    0.99614    0.02363    1.000
    N1377    N        0.99410    0.95995    0.09727    1.000
    Si1378   Si       0.98961    0.96233    0.05144    1.000
    N1379    N        0.15117    0.98808    0.09872    1.000
    N1380    N        0.17566    0.96355    0.04296    1.000
    N1381    N        0.22277    0.99834    0.08705    1.000
    Si1382   Si       0.19885    0.99991    0.05061    1.000
    Si1383   Si       0.17090    0.95565    0.99985    1.000
    Si1384   Si       0.14807    0.95093    0.07612    1.000
    N1385    N        0.05355    0.96153    0.15287    1.000
    Si1386   Si       0.06336    0.00331    0.16034    1.000
    N1387    N        0.05647    0.98939    0.24984    1.000
    N1388    N        0.10046    0.00678    0.13647    1.000
    Si1389   Si       0.23547    0.96870    0.21259    1.000
    N1390    N        0.12381    0.99405    0.23908    1.000
    Si1391   Si       0.14028    0.99170    0.14159    1.000
    N1392    N        0.19358    0.98140    0.21729    1.000
    N1393    N        0.15257    0.95339    0.15896    1.000
    N1394    N        0.05633    0.98189    0.35045    1.000
    N1395    N        0.10127    0.98743    0.29917    1.000
    Si1396   Si       0.08209    0.96031    0.27224    1.000
    N1397    N        0.98918    0.99547    0.26506    1.000
    N1398    N        0.16813    0.95592    0.27816    1.000
    N1399    N        0.17634    0.99438    0.33295    1.000
    Si1400   Si       0.18894    0.95704    0.31532    1.000
    Si1401   Si       0.15083    0.00103    0.36862    1.000
    Si1402   Si       0.16577    0.98847    0.24806    1.000
    N1403    N        0.23297    0.94811    0.31527    1.000
    N1404    N        0.08014    0.98105    0.42463    1.000
    N1405    N        0.00815    0.96709    0.40271    1.000
    Si1406   Si       0.03785    0.98773    0.42849    1.000
    N1407    N        0.02184    0.99800    0.46926    1.000
    N1408    N        0.08681    0.96782    0.48717    1.000
    Si1409   Si       0.18924    0.97999    0.44912    1.000
    Si1410   Si       0.12099    0.96492    0.42246    1.000
    N1411    N        0.20429    0.00210    0.48542    1.000
    N1412    N        0.14748    0.96414    0.38999    1.000
    N1413    N        0.20950    0.00393    0.41891    1.000
    N1414    N        0.14778    0.98259    0.45306    1.000
    Si1415   Si       0.12939    0.97446    0.49191    1.000
    N1416    N        0.02667    0.98719    0.59465    1.000
    N1417    N        0.03515    0.96259    0.52876    1.000
    Si1418   Si       0.00412    0.97450    0.55791    1.000
    Si1419   Si       0.05237    0.99116    0.50082    1.000
    N1420    N        0.12951    0.99127    0.53331    1.000
    N1421    N        0.20866    0.99597    0.55614    1.000
    Si1422   Si       0.20241    0.96088    0.57972    1.000
    Si1423   Si       0.23126    0.99331    0.51899    1.000
    Si1424   Si       0.13201    0.95028    0.54742    1.000
    N1425    N        0.21436    0.97236    0.62020    1.000
    N1426    N        0.15994    0.94762    0.57916    1.000
    Si1427   Si       0.03632    0.96733    0.73585    1.000
    Si1428   Si       0.00354    0.97487    0.63092    1.000
    Si1429   Si       0.06262    0.98011    0.67322    1.000
    N1430    N        0.03971    0.99573    0.70542    1.000
    N1431    N        0.09494    0.95529    0.68861    1.000
    N1432    N        0.03231    0.95340    0.65236    1.000
    Si1433   Si       0.19062    0.98968    0.72280    1.000
    N1434    N        0.20052    0.00513    0.68241    1.000
    N1435    N        0.15868    0.95977    0.71688    1.000
    N1436    N        0.23003    0.97795    0.73696    1.000
    Si1437   Si       0.18568    0.99655    0.64157    1.000
    Si1438   Si       0.13350    0.97406    0.68367    1.000
    N1439    N        0.15182    0.96833    0.64616    1.000
    Si1440   Si       0.07308    0.96370    0.80311    1.000
    Si1441   Si       0.00447    0.97072    0.80315    1.000
    N1442    N        0.06810    0.97932    0.76373    1.000
    N1443    N        0.09096    0.00065    0.81644    1.000
    N1444    N        0.03880    0.95364    0.82818    1.000
    N1445    N        0.01042    0.94881    0.76602    1.000
    N1446    N        0.21286    0.96586    0.82872    1.000
    Si1447   Si       0.12798    0.99247    0.83679    1.000
    Si1448   Si       0.19826    0.00460    0.83790    1.000
    N1449    N        0.14961    0.95598    0.85001    1.000
    Si1450   Si       0.99097    0.00318    0.97972    1.000
    Si1451   Si       0.08789    0.98394    0.90086    1.000
    N1452    N        0.09158    0.97000    0.94191    1.000
    N1453    N        0.02881    0.99484    0.96015    1.000
    Si1454   Si       0.07064    0.99029    0.97299    1.000
    Si1455   Si       0.01705    0.98963    0.91837    1.000
    N1456    N        0.01665    0.95071    0.89858    1.000
    Si1457   Si       0.23656    0.98779    0.98359    1.000
    Si1458   Si       0.15997    0.97857    0.88954    1.000
    N1459    N        0.20906    0.95299    0.98061    1.000
    N1460    N        0.12266    0.00444    0.88097    1.000
    N1461    N        0.15097    0.98677    0.97641    1.000
    N1462    N        0.19506    0.00056    0.88579    1.000
    Si1463   Si       0.13168    0.95483    0.95217    1.000
    N1464    N        0.32725    0.03919    0.05293    1.000
    N1465    N        0.27379    0.04434    0.09954    1.000
    Si1466   Si       0.35315    0.02098    0.02140    1.000
    Si1467   Si       0.30300    0.01786    0.08375    1.000
    N1468    N        0.41645    0.05074    0.09175    1.000
    Si1469   Si       0.40447    0.05810    0.05141    1.000
    N1470    N        0.39418    0.01804    0.03502    1.000
    Si1471   Si       0.46309    0.04822    0.00194    1.000
    N1472    N        0.48256    0.02486    0.09481    1.000
    Si1473   Si       0.44676    0.03399    0.12101    1.000
    Si1474   Si       0.34408    0.02751    0.14097    1.000
    N1475    N        0.33215    0.02366    0.18273    1.000
    Si1476   Si       0.24190    0.03918    0.19332    1.000
    N1477    N        0.40407    0.03201    0.21161    1.000
    N1478    N        0.47266    0.02628    0.20166    1.000
    N1479    N        0.38229    0.01453    0.14792    1.000
    Si1480   Si       0.46861    0.06778    0.18536    1.000
    Si1481   Si       0.37348    0.01260    0.19081    1.000
    Si1482   Si       0.43966    0.01616    0.22972    1.000
    N1483    N        0.27709    0.05292    0.33206    1.000
    Si1484   Si       0.28064    0.02597    0.36530    1.000
    Si1485   Si       0.25108    0.05204    0.30039    1.000
    N1486    N        0.31045    0.04385    0.26541    1.000
    Si1487   Si       0.34844    0.06466    0.27293    1.000
    N1488    N        0.36838    0.02459    0.28196    1.000
    N1489    N        0.46584    0.04469    0.34346    1.000
    N1490    N        0.44482    0.03504    0.27083    1.000
    Si1491   Si       0.40853    0.03226    0.29399    1.000
    Si1492   Si       0.48132    0.03816    0.30162    1.000
    Si1493   Si       0.42190    0.04114    0.36162    1.000
    Si1494   Si       0.35539    0.01600    0.38617    1.000
    N1495    N        0.34260    0.02254    0.42607    1.000
    N1496    N        0.27491    0.03532    0.40842    1.000
    N1497    N        0.29793    0.05624    0.46678    1.000
    Si1498   Si       0.30220    0.02010    0.44023    1.000
    N1499    N        0.35742    0.02425    0.49114    1.000
    Si1500   Si       0.33218    0.05930    0.49266    1.000
    Si1501   Si       0.25713    0.06841    0.43328    1.000
    N1502    N        0.38004    0.04882    0.37419    1.000
    Si1503   Si       0.37623    0.02556    0.45191    1.000
    N1504    N        0.40270    0.05935    0.45544    1.000
    Si1505   Si       0.48027    0.06685    0.37813    1.000
    N1506    N        0.27699    0.04573    0.58770    1.000
    N1507    N        0.25847    0.02666    0.52259    1.000
    Si1508   Si       0.29114    0.02942    0.55041    1.000
    Si1509   Si       0.26858    0.06445    0.50226    1.000
    N1510    N        0.30894    0.06426    0.52816    1.000
    N1511    N        0.37547    0.03137    0.55571    1.000
    Si1512   Si       0.46051    0.03871    0.61124    1.000
    N1513    N        0.42746    0.03644    0.58422    1.000
    Si1514   Si       0.40449    0.06414    0.55735    1.000
    Si1515   Si       0.27876    0.02081    0.62719    1.000
    N1516    N        0.30942    0.04891    0.63991    1.000
    N1517    N        0.25983    0.03990    0.71529    1.000
    N1518    N        0.24137    0.04511    0.64429    1.000
    Si1519   Si       0.23983    0.02162    0.68049    1.000
    N1520    N        0.36612    0.04307    0.68185    1.000
    Si1521   Si       0.39538    0.05254    0.71612    1.000
    Si1522   Si       0.47128    0.05578    0.72669    1.000
    N1523    N        0.43511    0.03390    0.71826    1.000
    N1524    N        0.37635    0.02719    0.74729    1.000
    N1525    N        0.29250    0.04136    0.82709    1.000
    Si1526   Si       0.25210    0.04948    0.81336    1.000
    N1527    N        0.32005    0.05652    0.75369    1.000
    Si1528   Si       0.33415    0.01363    0.74928    1.000
    Si1529   Si       0.30154    0.00633    0.85160    1.000
    Si1530   Si       0.25630    0.01055    0.74880    1.000
    N1531    N        0.48340    0.04988    0.80643    1.000
    N1532    N        0.41493    0.02460    0.80615    1.000
    Si1533   Si       0.45533    0.01938    0.82104    1.000
    Si1534   Si       0.39859    0.05978    0.82362    1.000
    N1535    N        0.45552    0.02099    0.86546    1.000
    N1536    N        0.39536    0.05629    0.86520    1.000
    N1537    N        0.27324    0.00457    0.88455    1.000
    Si1538   Si       0.35732    0.04247    0.88042    1.000
    N1539    N        0.34977    0.04627    0.92188    1.000
    Si1540   Si       0.25357    0.05041    0.94934    1.000
    N1541    N        0.29441    0.06158    0.95362    1.000
    N1542    N        0.35889    0.04530    0.98657    1.000
    N1543    N        0.41901    0.02834    0.93007    1.000
    N1544    N        0.44721    0.01074    0.98938    1.000
    Si1545   Si       0.48419    0.06236    0.92771    1.000
    Si1546   Si       0.37776    0.02895    0.95156    1.000
    Si1547   Si       0.42936    0.04543    0.89109    1.000
    N1548    N        0.48695    0.01532    0.92365    1.000
    N1549    N        0.30701    0.10701    0.08568    1.000
    Si1550   Si       0.32847    0.08258    0.05461    1.000
    N1551    N        0.31520    0.09967    0.01489    1.000
    Si1552   Si       0.29166    0.08046    0.11630    1.000
    N1553    N        0.47534    0.09076    0.07429    1.000
    N1554    N        0.37191    0.08883    0.05455    1.000
    Si1555   Si       0.45506    0.10805    0.04053    1.000
    N1556    N        0.43482    0.07361    0.02360    1.000
    Si1557   Si       0.46994    0.10151    0.11655    1.000
    N1558    N        0.48422    0.12285    0.01329    1.000
    Si1559   Si       0.27862    0.10476    0.18104    1.000
    Si1560   Si       0.34843    0.10734    0.21481    1.000
    Si1561   Si       0.35393    0.10047    0.15136    1.000
    N1562    N        0.26014    0.09827    0.14234    1.000
    N1563    N        0.32039    0.10668    0.17885    1.000
    Si1564   Si       0.28429    0.07254    0.24477    1.000
    N1565    N        0.27023    0.06998    0.20388    1.000
    N1566    N        0.33356    0.06789    0.12916    1.000
    N1567    N        0.45928    0.07061    0.14427    1.000
    Si1568   Si       0.40290    0.07427    0.21357    1.000
    N1569    N        0.38027    0.09346    0.18398    1.000
    N1570    N        0.44193    0.09120    0.21293    1.000
    N1571    N        0.37374    0.08448    0.24431    1.000
    Si1572   Si       0.30342    0.08803    0.32974    1.000
    N1573    N        0.34466    0.08357    0.31529    1.000
    N1574    N        0.28460    0.11846    0.30661    1.000
    N1575    N        0.24606    0.07625    0.26515    1.000
    Si1576   Si       0.35926    0.08262    0.35772    1.000
    N1577    N        0.31472    0.10469    0.24627    1.000
    N1578    N        0.47700    0.08443    0.29236    1.000
    Si1579   Si       0.43905    0.10140    0.30386    1.000
    Si1580   Si       0.37618    0.11584    0.31236    1.000
    N1581    N        0.38665    0.11680    0.35662    1.000
    N1582    N        0.40988    0.07186    0.31553    1.000
    N1583    N        0.45392    0.11959    0.33999    1.000
    N1584    N        0.31763    0.09196    0.37084    1.000
    N1585    N        0.26821    0.11122    0.42471    1.000
    N1586    N        0.35603    0.09508    0.49206    1.000
    Si1587   Si       0.29594    0.12316    0.39156    1.000
    N1588    N        0.47116    0.07364    0.46519    1.000
    N1589    N        0.42170    0.11840    0.45755    1.000
    Si1590   Si       0.43552    0.07966    0.43706    1.000
    Si1591   Si       0.42671    0.11830    0.37374    1.000
    Si1592   Si       0.39801    0.09211    0.48531    1.000
    N1593    N        0.44279    0.08236    0.39469    1.000
    Si1594   Si       0.29838    0.10044    0.55107    1.000
    N1595    N        0.31819    0.09857    0.58922    1.000
    N1596    N        0.25523    0.09988    0.53309    1.000
    N1597    N        0.25627    0.10952    0.61370    1.000
    Si1598   Si       0.28882    0.07806    0.61380    1.000
    Si1599   Si       0.35587    0.10857    0.60514    1.000
    N1600    N        0.39481    0.09536    0.58538    1.000
    Si1601   Si       0.43226    0.11054    0.60475    1.000
    Si1602   Si       0.46087    0.08363    0.50620    1.000
    N1603    N        0.42054    0.08006    0.52100    1.000
    N1604    N        0.30609    0.09152    0.69195    1.000
    Si1605   Si       0.33698    0.07122    0.66583    1.000
    Si1606   Si       0.28742    0.07114    0.72973    1.000
    N1607    N        0.35921    0.10211    0.64666    1.000
    Si1608   Si       0.45420    0.09866    0.66677    1.000
    Si1609   Si       0.42369    0.11152    0.73476    1.000
    N1610    N        0.45425    0.07971    0.62809    1.000
    N1611    N        0.39171    0.08627    0.74570    1.000
    N1612    N        0.41931    0.09696    0.69188    1.000
    N1613    N        0.48510    0.07692    0.68903    1.000
    Si1614   Si       0.39038    0.12213    0.67094    1.000
    Si1615   Si       0.27749    0.11647    0.79173    1.000
    N1616    N        0.24752    0.09189    0.81285    1.000
    N1617    N        0.31091    0.11576    0.82285    1.000
    Si1618   Si       0.35276    0.08435    0.76617    1.000
    Si1619   Si       0.32195    0.07321    0.83051    1.000
    N1620    N        0.26830    0.10340    0.75112    1.000
    N1621    N        0.35896    0.07149    0.80835    1.000
    N1622    N        0.34041    0.12591    0.76586    1.000
    N1623    N        0.45764    0.08950    0.75120    1.000
    N1624    N        0.43074    0.08913    0.81566    1.000
    Si1625   Si       0.46770    0.09333    0.79362    1.000
    N1626    N        0.32686    0.07600    0.87317    1.000
    Si1627   Si       0.24030    0.09945    0.89852    1.000
    Si1628   Si       0.31685    0.07767    0.91753    1.000
    Si1629   Si       0.32665    0.07754    0.97949    1.000
    N1630    N        0.28303    0.10519    0.90318    1.000
    N1631    N        0.33292    0.10907    0.94554    1.000
    N1632    N        0.47703    0.07205    0.96814    1.000
    N1633    N        0.45391    0.07996    0.90109    1.000
    Si1634   Si       0.45499    0.12469    0.89597    1.000
    Si1635   Si       0.48530    0.11432    0.97155    1.000
    Si1636   Si       0.32839    0.14380    0.09566    1.000
    N1637    N        0.30280    0.17583    0.02389    1.000
    N1638    N        0.35334    0.15353    0.06220    1.000
    N1639    N        0.24995    0.13652    0.03621    1.000
    N1640    N        0.30148    0.17260    0.11152    1.000
    Si1641   Si       0.28851    0.13372    0.01430    1.000
    Si1642   Si       0.44259    0.16349    0.07973    1.000
    N1643    N        0.42143    0.13594    0.05168    1.000
    Si1644   Si       0.38008    0.12892    0.03888    1.000
    N1645    N        0.48190    0.17281    0.06022    1.000
    N1646    N        0.45261    0.13994    0.11657    1.000
    N1647    N        0.38031    0.13811    0.99624    1.000
    N1648    N        0.27121    0.14118    0.19923    1.000
    Si1649   Si       0.30713    0.16447    0.21578    1.000
    N1650    N        0.35025    0.15219    0.21121    1.000
    N1651    N        0.35897    0.13699    0.12762    1.000
    Si1652   Si       0.38874    0.17136    0.20174    1.000
    Si1653   Si       0.45311    0.13142    0.21724    1.000
    Si1654   Si       0.44853    0.16588    0.15101    1.000
    N1655    N        0.42166    0.15777    0.22776    1.000
    N1656    N        0.47071    0.14169    0.17958    1.000
    N1657    N        0.40823    0.17073    0.16397    1.000
    Si1658   Si       0.38129    0.17533    0.12876    1.000
    Si1659   Si       0.25218    0.13991    0.32607    1.000
    N1660    N        0.34488    0.14564    0.30014    1.000
    N1661    N        0.29730    0.16907    0.25814    1.000
    Si1662   Si       0.31142    0.13423    0.27795    1.000
    N1663    N        0.26243    0.18110    0.32127    1.000
    N1664    N        0.25775    0.12683    0.36715    1.000
    Si1665   Si       0.48662    0.17849    0.25924    1.000
    Si1666   Si       0.41382    0.16717    0.26851    1.000
    N1667    N        0.41043    0.13053    0.28882    1.000
    N1668    N        0.48278    0.13725    0.24772    1.000
    Si1669   Si       0.33673    0.17289    0.43473    1.000
    Si1670   Si       0.27623    0.14300    0.45384    1.000
    N1671    N        0.30979    0.16382    0.40042    1.000
    N1672    N        0.31828    0.14278    0.46175    1.000
    N1673    N        0.25736    0.17957    0.43624    1.000
    N1674    N        0.25324    0.15120    0.49033    1.000
    Si1675   Si       0.39932    0.15663    0.45736    1.000
    N1676    N        0.48808    0.14842    0.43617    1.000
    Si1677   Si       0.39887    0.18182    0.38666    1.000
    Si1678   Si       0.45758    0.14464    0.46713    1.000
    N1679    N        0.37702    0.17116    0.42193    1.000
    N1680    N        0.43518    0.18165    0.46265    1.000
    Si1681   Si       0.47488    0.17196    0.40080    1.000
    N1682    N        0.43473    0.15865    0.39021    1.000
    Si1683   Si       0.26355    0.15404    0.60753    1.000
    Si1684   Si       0.32912    0.16884    0.56593    1.000
    N1685    N        0.31667    0.13835    0.53609    1.000
    N1686    N        0.35375    0.15213    0.59808    1.000
    N1687    N        0.29712    0.18235    0.59387    1.000
    Si1688   Si       0.34030    0.13467    0.49907    1.000
    Si1689   Si       0.23504    0.14575    0.52990    1.000
    N1690    N        0.24044    0.16217    0.57048    1.000
    Si1691   Si       0.47449    0.16992    0.59701    1.000
    N1692    N        0.46044    0.13148    0.57981    1.000
    N1693    N        0.46781    0.12828    0.50597    1.000
    Si1694   Si       0.48477    0.12334    0.54552    1.000
    N1695    N        0.37659    0.15730    0.49524    1.000
    Si1696   Si       0.28811    0.12917    0.68733    1.000
    N1697    N        0.30207    0.16205    0.71574    1.000
    Si1698   Si       0.34155    0.15361    0.73174    1.000
    N1699    N        0.29741    0.14682    0.64753    1.000
    Si1700   Si       0.32955    0.16784    0.62881    1.000
    N1701    N        0.24477    0.12359    0.68976    1.000
    Si1702   Si       0.39929    0.18040    0.72410    1.000
    Si1703   Si       0.43844    0.16677    0.65638    1.000
    N1704    N        0.37415    0.14343    0.70535    1.000
    N1705    N        0.47134    0.14365    0.67593    1.000
    N1706    N        0.41928    0.13298    0.63964    1.000
    N1707    N        0.42732    0.15370    0.74667    1.000
    N1708    N        0.26239    0.15783    0.79880    1.000
    Si1709   Si       0.34351    0.14055    0.80660    1.000
    N1710    N        0.27892    0.15848    0.86435    1.000
    Si1711   Si       0.28753    0.17885    0.82590    1.000
    N1712    N        0.32701    0.18266    0.80807    1.000
    Si1713   Si       0.30808    0.12245    0.86943    1.000
    N1714    N        0.46075    0.14143    0.80994    1.000
    Si1715   Si       0.45930    0.16893    0.77411    1.000
    N1716    N        0.38057    0.14305    0.82546    1.000
    Si1717   Si       0.42297    0.12989    0.83094    1.000
    Si1718   Si       0.37996    0.15770    0.86692    1.000
    N1719    N        0.26730    0.12427    0.97821    1.000
    Si1720   Si       0.27367    0.13294    0.93805    1.000
    Si1721   Si       0.33694    0.14804    0.92798    1.000
    N1722    N        0.29799    0.16793    0.93446    1.000
    N1723    N        0.34486    0.14049    0.88509    1.000
    Si1724   Si       0.24410    0.16943    0.89067    1.000
    Si1725   Si       0.38181    0.17804    0.98226    1.000
    N1726    N        0.45885    0.13417    0.93975    1.000
    Si1727   Si       0.45615    0.17586    0.95131    1.000
    N1728    N        0.42043    0.13936    0.87235    1.000
    N1729    N        0.36545    0.17766    0.94119    1.000
    N1730    N        0.33314    0.22445    0.06927    1.000
    Si1731   Si       0.27018    0.20049    0.03533    1.000
    Si1732   Si       0.27203    0.20488    0.11152    1.000
    Si1733   Si       0.33477    0.23391    0.11229    1.000
    N1734    N        0.24982    0.19447    0.07482    1.000
    Si1735   Si       0.33884    0.18955    0.04290    1.000
    N1736    N        0.28078    0.24122    0.02910    1.000
    N1737    N        0.29224    0.24240    0.11917    1.000
    N1738    N        0.36952    0.20453    0.01521    1.000
    N1739    N        0.46699    0.23187    0.09176    1.000
    Si1740   Si       0.42417    0.23149    0.09336    1.000
    N1741    N        0.41109    0.19009    0.09913    1.000
    Si1742   Si       0.34523    0.22009    0.18247    1.000
    Si1743   Si       0.26553    0.21558    0.18603    1.000
    N1744    N        0.30666    0.20341    0.19436    1.000
    N1745    N        0.35473    0.20782    0.14113    1.000
    N1746    N        0.24599    0.19919    0.14774    1.000
    N1747    N        0.37919    0.21245    0.21023    1.000
    N1748    N        0.46792    0.20363    0.15201    1.000
    N1749    N        0.32609    0.21293    0.30472    1.000
    Si1750   Si       0.28860    0.19850    0.28845    1.000
    N1751    N        0.26342    0.23337    0.27773    1.000
    Si1752   Si       0.24375    0.21462    0.33981    1.000
    Si1753   Si       0.35922    0.18549    0.31107    1.000
    N1754    N        0.38531    0.19640    0.27838    1.000
    Si1755   Si       0.39773    0.22921    0.34529    1.000
    Si1756   Si       0.45466    0.23213    0.29092    1.000
    N1757    N        0.45127    0.18766    0.28106    1.000
    N1758    N        0.38020    0.18794    0.34785    1.000
    N1759    N        0.43573    0.23402    0.32943    1.000
    Si1760   Si       0.46309    0.24047    0.36691    1.000
    Si1761   Si       0.38710    0.22941    0.24921    1.000
    N1762    N        0.32801    0.21020    0.45644    1.000
    N1763    N        0.25989    0.23069    0.47445    1.000
    N1764    N        0.29049    0.23501    0.40596    1.000
    Si1765   Si       0.27767    0.19367    0.39876    1.000
    Si1766   Si       0.35764    0.23626    0.47248    1.000
    Si1767   Si       0.29311    0.23658    0.44848    1.000
    Si1768   Si       0.24046    0.19114    0.47781    1.000
    Si1769   Si       0.43191    0.22272    0.47800    1.000
    N1770    N        0.47608    0.21511    0.39916    1.000
    N1771    N        0.39119    0.22096    0.49216    1.000
    N1772    N        0.41053    0.22388    0.38624    1.000
    N1773    N        0.34960    0.19850    0.54341    1.000
    Si1774   Si       0.30059    0.22367    0.61025    1.000
    Si1775   Si       0.45248    0.22323    0.55170    1.000
    N1776    N        0.46186    0.23023    0.51038    1.000
    N1777    N        0.48425    0.19816    0.56633    1.000
    Si1778   Si       0.38654    0.18920    0.52177    1.000
    N1779    N        0.41700    0.19682    0.55002    1.000
    N1780    N        0.33332    0.20906    0.63928    1.000
    Si1781   Si       0.28603    0.20094    0.71433    1.000
    N1782    N        0.31184    0.23692    0.70516    1.000
    N1783    N        0.26672    0.23734    0.63144    1.000
    N1784    N        0.24713    0.20281    0.69369    1.000
    Si1785   Si       0.33580    0.24055    0.66887    1.000
    N1786    N        0.41611    0.18926    0.68424    1.000
    Si1787   Si       0.45633    0.23427    0.62311    1.000
    N1788    N        0.42009    0.22077    0.73787    1.000
    Si1789   Si       0.43713    0.22691    0.69694    1.000
    N1790    N        0.48031    0.20935    0.69901    1.000
    N1791    N        0.45073    0.19080    0.62403    1.000
    Si1792   Si       0.35025    0.21038    0.78133    1.000
    N1793    N        0.26688    0.21658    0.82934    1.000
    Si1794   Si       0.25112    0.22777    0.79015    1.000
    N1795    N        0.27303    0.21781    0.75390    1.000
    N1796    N        0.36233    0.18862    0.74685    1.000
    N1797    N        0.38364    0.22264    0.80443    1.000
    N1798    N        0.45148    0.20587    0.79479    1.000
    Si1799   Si       0.41942    0.22962    0.77974    1.000
    Si1800   Si       0.47803    0.22796    0.82228    1.000
    Si1801   Si       0.37901    0.23390    0.84631    1.000
    N1802    N        0.48711    0.19784    0.85254    1.000
    Si1803   Si       0.29260    0.21112    0.92619    1.000
    N1804    N        0.33026    0.22969    0.91331    1.000
    N1805    N        0.25734    0.20961    0.89992    1.000
    N1806    N        0.27851    0.23900    0.95806    1.000
    Si1807   Si       0.25726    0.24287    0.99479    1.000
    Si1808   Si       0.37065    0.21225    0.91539    1.000
    Si1809   Si       0.42402    0.23572    0.96581    1.000
    N1810    N        0.38126    0.20103    0.87418    1.000
    N1811    N        0.45892    0.19731    0.91491    1.000
    N1812    N        0.42295    0.19394    0.97376    1.000
    N1813    N        0.34755    0.27172    0.02676    1.000
    Si1814   Si       0.31421    0.26235    0.05039    1.000
    N1815    N        0.30092    0.29247    0.07636    1.000
    Si1816   Si       0.28613    0.28520    0.11628    1.000
    N1817    N        0.35360    0.27313    0.11705    1.000
    Si1818   Si       0.37863    0.24336    0.02809    1.000
    Si1819   Si       0.39065    0.28316    0.09910    1.000
    N1820    N        0.39867    0.25422    0.06748    1.000
    N1821    N        0.46192    0.29273    0.02703    1.000
    Si1822   Si       0.42567    0.29425    0.00703    1.000
    N1823    N        0.40654    0.25735    0.99918    1.000
    N1824    N        0.33860    0.26397    0.18351    1.000
    N1825    N        0.25409    0.25184    0.20827    1.000
    Si1826   Si       0.34036    0.29472    0.15288    1.000
    Si1827   Si       0.35355    0.28346    0.21968    1.000
    Si1828   Si       0.24994    0.29241    0.22017    1.000
    Si1829   Si       0.44916    0.27704    0.15462    1.000
    N1830    N        0.39544    0.29437    0.21169    1.000
    N1831    N        0.45377    0.25706    0.19418    1.000
    N1832    N        0.41877    0.26393    0.12584    1.000
    Si1833   Si       0.43182    0.27705    0.22624    1.000
    N1834    N        0.30929    0.28556    0.30204    1.000
    Si1835   Si       0.26877    0.26847    0.30265    1.000
    Si1836   Si       0.33936    0.25376    0.29712    1.000
    N1837    N        0.35456    0.25673    0.25593    1.000
    N1838    N        0.26809    0.24991    0.34459    1.000
    Si1839   Si       0.36344    0.28986    0.35355    1.000
    N1840    N        0.26656    0.29896    0.25968    1.000
    N1841    N        0.36960    0.25653    0.32752    1.000
    N1842    N        0.42594    0.24665    0.25795    1.000
    Si1843   Si       0.28911    0.26815    0.37871    1.000
    N1844    N        0.30683    0.28387    0.44638    1.000
    N1845    N        0.32905    0.28441    0.38153    1.000
    Si1846   Si       0.34516    0.28845    0.42151    1.000
    Si1847   Si       0.30904    0.29026    0.48940    1.000
    Si1848   Si       0.23919    0.26858    0.48526    1.000
    N1849    N        0.45918    0.27687    0.39242    1.000
    N1850    N        0.39512    0.28942    0.38408    1.000
    Si1851   Si       0.47741    0.25275    0.42506    1.000
    N1852    N        0.37078    0.25978    0.43907    1.000
    Si1853   Si       0.40925    0.25802    0.41295    1.000
    N1854    N        0.43810    0.25329    0.44819    1.000
    Si1855   Si       0.34267    0.27811    0.60686    1.000
    N1856    N        0.33773    0.26129    0.50491    1.000
    N1857    N        0.32224    0.24904    0.58132    1.000
    N1858    N        0.26801    0.29904    0.50030    1.000
    Si1859   Si       0.34797    0.24268    0.54548    1.000
    N1860    N        0.38060    0.27465    0.55163    1.000
    Si1861   Si       0.40990    0.27915    0.58305    1.000
    Si1862   Si       0.36930    0.29669    0.51410    1.000
    N1863    N        0.44210    0.25091    0.58588    1.000
    N1864    N        0.38165    0.26365    0.61543    1.000
    N1865    N        0.32070    0.27270    0.64255    1.000
    Si1866   Si       0.27772    0.27740    0.64479    1.000
    Si1867   Si       0.29990    0.25234    0.74663    1.000
    N1868    N        0.27808    0.29028    0.74368    1.000
    N1869    N        0.26660    0.30170    0.67673    1.000
    N1870    N        0.43867    0.25252    0.66143    1.000
    Si1871   Si       0.45874    0.28984    0.67831    1.000
    Si1872   Si       0.39934    0.26860    0.65452    1.000
    N1873    N        0.43575    0.29154    0.71861    1.000
    N1874    N        0.37573    0.24784    0.68225    1.000
    Si1875   Si       0.33474    0.27803    0.81112    1.000
    N1876    N        0.34113    0.25700    0.84936    1.000
    N1877    N        0.32786    0.24846    0.77876    1.000
    Si1878   Si       0.26892    0.29960    0.78541    1.000
    N1879    N        0.24146    0.26915    0.79790    1.000
    N1880    N        0.40844    0.26220    0.86245    1.000
    N1881    N        0.43291    0.27021    0.78915    1.000
    N1882    N        0.47233    0.26390    0.84283    1.000
    Si1883   Si       0.43462    0.28242    0.83191    1.000
    N1884    N        0.27891    0.27101    0.89358    1.000
    Si1885   Si       0.32148    0.26648    0.88962    1.000
    Si1886   Si       0.26548    0.27388    0.93710    1.000
    Si1887   Si       0.23935    0.28517    0.88258    1.000
    Si1888   Si       0.48791    0.27746    0.88189    1.000
    N1889    N        0.39929    0.24489    0.93095    1.000
    Si1890   Si       0.41224    0.27706    0.90144    1.000
    Si1891   Si       0.46479    0.28960    0.94916    1.000
    N1892    N        0.46421    0.24965    0.96477    1.000
    N1893    N        0.45383    0.28491    0.90844    1.000
    Si1894   Si       0.30652    0.33415    0.06595    1.000
    N1895    N        0.32074    0.33223    0.02579    1.000
    Si1896   Si       0.35527    0.31148    0.01050    1.000
    N1897    N        0.26482    0.34876    0.07086    1.000
    N1898    N        0.33326    0.35546    0.09432    1.000
    N1899    N        0.25797    0.35572    0.00278    1.000
    Si1900   Si       0.24338    0.34503    0.10833    1.000
    N1901    N        0.24473    0.30129    0.11758    1.000
    Si1902   Si       0.40590    0.34858    0.05617    1.000
    N1903    N        0.39613    0.32710    0.09354    1.000
    N1904    N        0.39637    0.31962    0.02651    1.000
    Si1905   Si       0.36919    0.35144    0.11838    1.000
    N1906    N        0.24544    0.32473    0.19358    1.000
    Si1907   Si       0.27914    0.34361    0.17052    1.000
    N1908    N        0.30141    0.31267    0.14839    1.000
    N1909    N        0.33187    0.31789    0.23582    1.000
    Si1910   Si       0.32209    0.36087    0.23416    1.000
    N1911    N        0.36876    0.32657    0.15578    1.000
    N1912    N        0.45589    0.30786    0.24570    1.000
    Si1913   Si       0.40321    0.32855    0.18521    1.000
    Si1914   Si       0.48326    0.33680    0.16311    1.000
    N1915    N        0.41537    0.35816    0.21678    1.000
    N1916    N        0.44208    0.31871    0.16663    1.000
    Si1917   Si       0.30561    0.31317    0.27036    1.000
    N1918    N        0.26793    0.35186    0.33339    1.000
    N1919    N        0.29959    0.35675    0.27161    1.000
    N1920    N        0.36732    0.32598    0.33036    1.000
    Si1921   Si       0.40489    0.34990    0.32393    1.000
    N1922    N        0.43918    0.33741    0.34916    1.000
    Si1923   Si       0.47905    0.35007    0.34933    1.000
    Si1924   Si       0.44470    0.34740    0.25413    1.000
    N1925    N        0.41269    0.35950    0.28315    1.000
    Si1926   Si       0.28214    0.34585    0.37440    1.000
    N1927    N        0.29157    0.34680    0.43614    1.000
    N1928    N        0.32245    0.35499    0.38010    1.000
    Si1929   Si       0.27431    0.30718    0.42976    1.000
    N1930    N        0.36084    0.32868    0.43250    1.000
    N1931    N        0.26522    0.30526    0.38457    1.000
    Si1932   Si       0.47734    0.33699    0.43041    1.000
    Si1933   Si       0.39917    0.33453    0.45168    1.000
    N1934    N        0.43296    0.32991    0.42291    1.000
    Si1935   Si       0.43145    0.31087    0.38397    1.000
    N1936    N        0.40340    0.31118    0.49070    1.000
    N1937    N        0.47643    0.32980    0.47765    1.000
    N1938    N        0.33965    0.31997    0.59688    1.000
    N1939    N        0.28589    0.34004    0.55237    1.000
    Si1940   Si       0.29964    0.33502    0.59240    1.000
    Si1941   Si       0.25054    0.32236    0.53190    1.000
    N1942    N        0.33331    0.32259    0.50545    1.000
    Si1943   Si       0.31031    0.35491    0.52099    1.000
    N1944    N        0.26894    0.31144    0.61691    1.000
    Si1945   Si       0.44350    0.32079    0.50387    1.000
    Si1946   Si       0.43155    0.34784    0.56036    1.000
    N1947    N        0.41370    0.32082    0.59654    1.000
    Si1948   Si       0.37675    0.34605    0.59811    1.000
    N1949    N        0.45300    0.30841    0.54442    1.000
    N1950    N        0.46440    0.35880    0.58771    1.000
    Si1951   Si       0.24798    0.30339    0.71500    1.000
    Si1952   Si       0.27743    0.33852    0.65319    1.000
    N1953    N        0.31252    0.35323    0.67321    1.000
    N1954    N        0.36630    0.33393    0.72148    1.000
    Si1955   Si       0.44440    0.33909    0.62256    1.000
    Si1956   Si       0.40573    0.32300    0.70658    1.000
    N1957    N        0.46968    0.32008    0.65003    1.000
    N1958    N        0.40000    0.30946    0.66569    1.000
    N1959    N        0.43022    0.35788    0.70621    1.000
    Si1960   Si       0.33624    0.34236    0.81645    1.000
    Si1961   Si       0.27004    0.34154    0.83164    1.000
    N1962    N        0.25020    0.33767    0.79318    1.000
    N1963    N        0.24631    0.32255    0.86254    1.000
    N1964    N        0.30182    0.30696    0.81478    1.000
    N1965    N        0.36295    0.30736    0.79669    1.000
    N1966    N        0.36229    0.35664    0.84961    1.000
    Si1967   Si       0.37397    0.33486    0.76480    1.000
    N1968    N        0.41740    0.33554    0.76322    1.000
    N1969    N        0.43866    0.32229    0.84578    1.000
    Si1970   Si       0.44503    0.30113    0.76104    1.000
    N1971    N        0.48852    0.30654    0.76968    1.000
    Si1972   Si       0.24433    0.32088    0.98138    1.000
    Si1973   Si       0.32217    0.32563    0.94550    1.000
    N1974    N        0.28005    0.31169    0.95499    1.000
    N1975    N        0.35856    0.31492    0.96691    1.000
    Si1976   Si       0.35837    0.33810    0.88938    1.000
    N1977    N        0.33314    0.30604    0.90689    1.000
    Si1978   Si       0.39481    0.32776    0.94928    1.000
    N1979    N        0.39916    0.32282    0.90558    1.000
    N1980    N        0.43097    0.31157    0.96669    1.000
    Si1981   Si       0.45187    0.35154    0.95431    1.000
    Si1982   Si       0.43189    0.34358    0.88289    1.000
    N1983    N        0.46425    0.36023    0.91146    1.000
    Si1984   Si       0.33676    0.39146    0.06987    1.000
    N1985    N        0.30973    0.39631    0.03502    1.000
    Si1986   Si       0.30023    0.36489    0.00367    1.000
    N1987    N        0.24311    0.41092    0.04115    1.000
    N1988    N        0.37616    0.38198    0.05372    1.000
    N1989    N        0.43694    0.37803    0.03776    1.000
    Si1990   Si       0.47191    0.39648    0.02309    1.000
    Si1991   Si       0.40590    0.40940    0.03752    1.000
    N1992    N        0.29860    0.37033    0.19997    1.000
    Si1993   Si       0.29081    0.41262    0.19928    1.000
    N1994    N        0.25916    0.36827    0.14092    1.000
    N1995    N        0.24941    0.41770    0.19158    1.000
    Si1996   Si       0.44693    0.38536    0.20339    1.000
    N1997    N        0.46684    0.38390    0.24216    1.000
    N1998    N        0.42127    0.41977    0.19267    1.000
    Si1999   Si       0.48238    0.41383    0.14626    1.000
    N2000    N        0.39054    0.38758    0.13169    1.000
    N2001    N        0.47174    0.37729    0.16905    1.000
    N2002    N        0.31972    0.39274    0.32652    1.000
    Si2003   Si       0.28626    0.37872    0.30520    1.000
    Si2004   Si       0.34616    0.36281    0.34639    1.000
    N2005    N        0.35223    0.38962    0.24317    1.000
    N2006    N        0.38775    0.38207    0.34561    1.000
    Si2007   Si       0.39577    0.38465    0.24748    1.000
    N2008    N        0.48584    0.39596    0.35555    1.000
    N2009    N        0.25388    0.37487    0.39413    1.000
    Si2010   Si       0.26707    0.38308    0.43411    1.000
    N2011    N        0.34628    0.39738    0.43453    1.000
    Si2012   Si       0.33202    0.35914    0.42122    1.000
    Si2013   Si       0.38784    0.40646    0.43637    1.000
    N2014    N        0.40326    0.37664    0.46197    1.000
    N2015    N        0.47761    0.38078    0.43665    1.000
    N2016    N        0.45805    0.41510    0.48709    1.000
    Si2017   Si       0.47962    0.37721    0.48070    1.000
    N2018    N        0.41000    0.42174    0.40082    1.000
    N2019    N        0.33476    0.38882    0.53623    1.000
    N2020    N        0.29076    0.36979    0.61738    1.000
    Si2021   Si       0.30716    0.41675    0.51692    1.000
    N2022    N        0.28384    0.38510    0.50092    1.000
    Si2023   Si       0.24075    0.38935    0.50209    1.000
    N2024    N        0.35886    0.37805    0.62177    1.000
    Si2025   Si       0.37244    0.40423    0.55131    1.000
    N2026    N        0.39571    0.37148    0.56723    1.000
    N2027    N        0.44037    0.36250    0.51863    1.000
    N2028    N        0.39323    0.41927    0.51612    1.000
    Si2029   Si       0.42317    0.39595    0.49758    1.000
    Si2030   Si       0.24977    0.38259    0.62081    1.000
    Si2031   Si       0.34051    0.36502    0.70497    1.000
    N2032    N        0.25127    0.40909    0.71702    1.000
    Si2033   Si       0.32327    0.38540    0.64589    1.000
    N2034    N        0.31886    0.39640    0.72605    1.000
    N2035    N        0.24658    0.36736    0.66152    1.000
    N2036    N        0.36693    0.39173    0.68111    1.000
    Si2037   Si       0.39025    0.39709    0.64469    1.000
    Si2038   Si       0.44788    0.38331    0.67616    1.000
    N2039    N        0.42334    0.37065    0.64199    1.000
    N2040    N        0.48934    0.38048    0.67319    1.000
    Si2041   Si       0.32330    0.39996    0.76949    1.000
    Si2042   Si       0.27144    0.40613    0.82314    1.000
    Si2043   Si       0.32309    0.39324    0.86382    1.000
    N2044    N        0.30303    0.36976    0.83067    1.000
    N2045    N        0.28251    0.40958    0.77994    1.000
    N2046    N        0.34375    0.36452    0.77963    1.000
    N2047    N        0.23881    0.38004    0.83940    1.000
    Si2048   Si       0.38889    0.39288    0.84801    1.000
    N2049    N        0.40641    0.41104    0.81175    1.000
    N2050    N        0.47218    0.37663    0.75636    1.000
    Si2051   Si       0.43050    0.37503    0.74560    1.000
    N2052    N        0.39979    0.40541    0.74384    1.000
    N2053    N        0.33320    0.37199    0.90214    1.000
    Si2054   Si       0.32976    0.39752    0.93734    1.000
    N2055    N        0.31818    0.36627    0.96506    1.000
    N2056    N        0.44777    0.42228    0.93665    1.000
    Si2057   Si       0.45582    0.40263    0.89743    1.000
    N2058    N        0.47377    0.37815    0.98067    1.000
    N2059    N        0.36789    0.41752    0.94088    1.000
    N2060    N        0.41005    0.36723    0.95544    1.000
    Si2061   Si       0.40888    0.40977    0.95658    1.000
    N2062    N        0.42111    0.38754    0.87738    1.000
    Si2063   Si       0.48439    0.42153    0.96702    1.000
    Si2064   Si       0.28220    0.42913    0.02904    1.000
    Si2065   Si       0.32530    0.46584    0.08066    1.000
    N2066    N        0.30783    0.46634    0.03932    1.000
    N2067    N        0.32297    0.42508    0.09619    1.000
    Si2068   Si       0.44516    0.45059    0.09420    1.000
    N2069    N        0.41445    0.44225    0.06372    1.000
    N2070    N        0.47020    0.43773    0.00674    1.000
    N2071    N        0.48116    0.45569    0.06976    1.000
    Si2072   Si       0.47273    0.47372    0.02964    1.000
    N2073    N        0.40404    0.42444    0.99852    1.000
    Si2074   Si       0.40511    0.46766    0.99808    1.000
    N2075    N        0.25214    0.43664    0.12573    1.000
    N2076    N        0.31317    0.42908    0.16576    1.000
    Si2077   Si       0.29602    0.43753    0.12753    1.000
    Si2078   Si       0.34489    0.45792    0.17633    1.000
    N2079    N        0.29926    0.43138    0.23808    1.000
    N2080    N        0.38053    0.45488    0.15069    1.000
    Si2081   Si       0.40859    0.45074    0.22007    1.000
    Si2082   Si       0.40851    0.42147    0.15055    1.000
    N2083    N        0.36464    0.45282    0.21519    1.000
    N2084    N        0.44577    0.47653    0.21489    1.000
    N2085    N        0.44662    0.43212    0.13209    1.000
    Si2086   Si       0.48912    0.46576    0.21213    1.000
    N2087    N        0.29748    0.46309    0.33530    1.000
    Si2088   Si       0.32995    0.43677    0.32741    1.000
    N2089    N        0.34952    0.44094    0.28748    1.000
    Si2090   Si       0.25598    0.44295    0.33714    1.000
    Si2091   Si       0.27240    0.44950    0.26727    1.000
    N2092    N        0.35311    0.44126    0.36462    1.000
    Si2093   Si       0.34350    0.43144    0.24696    1.000
    N2094    N        0.26598    0.41894    0.30046    1.000
    N2095    N        0.40638    0.45251    0.33187    1.000
    Si2096   Si       0.39138    0.45122    0.28989    1.000
    N2097    N        0.40779    0.42654    0.25799    1.000
    Si2098   Si       0.39395    0.42221    0.35992    1.000
    N2099    N        0.33206    0.43832    0.48855    1.000
    Si2100   Si       0.32191    0.43183    0.44576    1.000
    Si2101   Si       0.24922    0.45318    0.41819    1.000
    N2102    N        0.32989    0.46887    0.42568    1.000
    N2103    N        0.28186    0.42413    0.43238    1.000
    Si2104   Si       0.35434    0.47632    0.39032    1.000
    N2105    N        0.24270    0.43826    0.37786    1.000
    Si2106   Si       0.42207    0.45776    0.42095    1.000
    Si2107   Si       0.47459    0.45317    0.47211    1.000
    N2108    N        0.46436    0.45865    0.43009    1.000
    Si2109   Si       0.37385    0.45071    0.49269    1.000
    N2110    N        0.39353    0.44546    0.45459    1.000
    N2111    N        0.28786    0.44016    0.54786    1.000
    Si2112   Si       0.32082    0.46185    0.56603    1.000
    Si2113   Si       0.24665    0.45606    0.54194    1.000
    N2114    N        0.30914    0.46835    0.60629    1.000
    N2115    N        0.35900    0.44116    0.56952    1.000
    N2116    N        0.24868    0.42494    0.61680    1.000
    Si2117   Si       0.38871    0.46050    0.59501    1.000
    N2118    N        0.42627    0.46403    0.57279    1.000
    Si2119   Si       0.46646    0.45154    0.58115    1.000
    Si2120   Si       0.28045    0.44747    0.63391    1.000
    N2121    N        0.29428    0.46445    0.71788    1.000
    Si2122   Si       0.29242    0.42378    0.70391    1.000
    N2123    N        0.30506    0.42365    0.66293    1.000
    N2124    N        0.42603    0.42043    0.68245    1.000
    Si2125   Si       0.43232    0.44785    0.65132    1.000
    N2126    N        0.36920    0.46342    0.70384    1.000
    Si2127   Si       0.38804    0.42276    0.70526    1.000
    N2128    N        0.46473    0.44914    0.62384    1.000
    N2129    N        0.39521    0.43632    0.62943    1.000
    N2130    N        0.34590    0.43522    0.78004    1.000
    Si2131   Si       0.32511    0.47165    0.79315    1.000
    Si2132   Si       0.24709    0.42387    0.75621    1.000
    Si2133   Si       0.36244    0.46539    0.86233    1.000
    N2134    N        0.28843    0.42016    0.86167    1.000
    N2135    N        0.23953    0.43873    0.81856    1.000
    Si2136   Si       0.24556    0.47657    0.79613    1.000
    N2137    N        0.35818    0.42145    0.86074    1.000
    N2138    N        0.47748    0.44915    0.75605    1.000
    Si2139   Si       0.38962    0.43145    0.77854    1.000
    N2140    N        0.46243    0.46623    0.82602    1.000
    N2141    N        0.40936    0.46955    0.77072    1.000
    Si2142   Si       0.45012    0.47255    0.78423    1.000
    N2143    N        0.33441    0.47001    0.97192    1.000
    Si2144   Si       0.26632    0.43307    0.89696    1.000
    N2145    N        0.26946    0.44020    0.98878    1.000
    Si2146   Si       0.29307    0.45687    0.95768    1.000
    N2147    N        0.29710    0.42833    0.92749    1.000
    N2148    N        0.25494    0.47470    0.88940    1.000
    Si2149   Si       0.36265    0.46030    0.94212    1.000
    N2150    N        0.35097    0.47719    0.90250    1.000
    Si2151   Si       0.48543    0.46814    0.90681    1.000
    N2152    N        0.48335    0.43250    0.87807    1.000
    N2153    N        0.40003    0.47706    0.95677    1.000
    Si2154   Si       0.33381    0.49097    0.01031    1.000
    Si2155   Si       0.26758    0.50737    0.11680    1.000
    N2156    N        0.33695    0.53479    0.00538    1.000
    Si2157   Si       0.36296    0.53574    0.09653    1.000
    N2158    N        0.30186    0.48137    0.11323    1.000
    N2159    N        0.23898    0.49231    0.08658    1.000
    N2160    N        0.36375    0.48869    0.08920    1.000
    N2161    N        0.39292    0.53845    0.06218    1.000
    Si2162   Si       0.40078    0.49082    0.05840    1.000
    N2163    N        0.43337    0.49194    0.02435    1.000
    N2164    N        0.42905    0.49012    0.10476    1.000
    Si2165   Si       0.45166    0.52597    0.00276    1.000
    N2166    N        0.37310    0.47958    0.02555    1.000
    N2167    N        0.25762    0.50745    0.21837    1.000
    Si2168   Si       0.28043    0.51053    0.18363    1.000
    N2169    N        0.31933    0.49117    0.17947    1.000
    N2170    N        0.24830    0.50459    0.15554    1.000
    N2171    N        0.44832    0.53034    0.16179    1.000
    Si2172   Si       0.46176    0.51325    0.12330    1.000
    Si2173   Si       0.44199    0.51890    0.20372    1.000
    N2174    N        0.38276    0.53010    0.13347    1.000
    Si2175   Si       0.39059    0.48813    0.12368    1.000
    N2176    N        0.47093    0.53974    0.22839    1.000
    N2177    N        0.26240    0.52423    0.33627    1.000
    Si2178   Si       0.26839    0.52347    0.25681    1.000
    Si2179   Si       0.29559    0.50519    0.31715    1.000
    N2180    N        0.28586    0.48863    0.27739    1.000
    N2181    N        0.32769    0.53346    0.31269    1.000
    Si2182   Si       0.41748    0.48679    0.35535    1.000
    Si2183   Si       0.41310    0.52211    0.29722    1.000
    N2184    N        0.41038    0.52498    0.34073    1.000
    N2185    N        0.45581    0.51030    0.29540    1.000
    N2186    N        0.38979    0.49311    0.27627    1.000
    Si2187   Si       0.48120    0.49486    0.32920    1.000
    N2188    N        0.45909    0.48553    0.36635    1.000
    Si2189   Si       0.48025    0.53473    0.26983    1.000
    N2190    N        0.33161    0.51194    0.38173    1.000
    N2191    N        0.26479    0.49226    0.41766    1.000
    Si2192   Si       0.30685    0.50478    0.41792    1.000
    Si2193   Si       0.48593    0.48341    0.39984    1.000
    N2194    N        0.39762    0.48725    0.39758    1.000
    N2195    N        0.42688    0.51709    0.45667    1.000
    Si2196   Si       0.40054    0.52464    0.42175    1.000
    N2197    N        0.32627    0.49926    0.54344    1.000
    N2198    N        0.27086    0.52037    0.57646    1.000
    Si2199   Si       0.28552    0.51606    0.53348    1.000
    Si2200   Si       0.29076    0.50778    0.61328    1.000
    N2201    N        0.25769    0.48969    0.51525    1.000
    Si2202   Si       0.36656    0.51239    0.54269    1.000
    N2203    N        0.38314    0.50447    0.58587    1.000
    Si2204   Si       0.43166    0.50886    0.57413    1.000
    N2205    N        0.47637    0.49923    0.57212    1.000
    N2206    N        0.38567    0.48858    0.51011    1.000
    N2207    N        0.42961    0.53129    0.53410    1.000
    N2208    N        0.46397    0.48644    0.50169    1.000
    Si2209   Si       0.39008    0.53630    0.61595    1.000
    Si2210   Si       0.48782    0.50830    0.52940    1.000
    Si2211   Si       0.42414    0.50486    0.49847    1.000
    N2212    N        0.26163    0.49011    0.64151    1.000
    N2213    N        0.32305    0.52038    0.69581    1.000
    Si2214   Si       0.26080    0.49245    0.72458    1.000
    Si2215   Si       0.33349    0.48381    0.71879    1.000
    N2216    N        0.27499    0.53263    0.74080    1.000
    N2217    N        0.39621    0.52418    0.72425    1.000
    N2218    N        0.37986    0.52189    0.65592    1.000
    Si2219   Si       0.39618    0.49786    0.69023    1.000
    Si2220   Si       0.46365    0.51500    0.67629    1.000
    N2221    N        0.43277    0.48619    0.67232    1.000
    N2222    N        0.33952    0.49798    0.76032    1.000
    Si2223   Si       0.32913    0.52589    0.84248    1.000
    Si2224   Si       0.30933    0.52727    0.77183    1.000
    N2225    N        0.33955    0.48301    0.83129    1.000
    N2226    N        0.28705    0.49083    0.79104    1.000
    N2227    N        0.40109    0.48139    0.84987    1.000
    Si2228   Si       0.48157    0.53402    0.74895    1.000
    N2229    N        0.47261    0.50982    0.78212    1.000
    Si2230   Si       0.40177    0.52472    0.83721    1.000
    Si2231   Si       0.38397    0.50862    0.76408    1.000
    N2232    N        0.44213    0.52972    0.84871    1.000
    Si2233   Si       0.44371    0.48482    0.86101    1.000
    N2234    N        0.39915    0.53405    0.79540    1.000
    Si2235   Si       0.26230    0.51733    0.87988    1.000
    N2236    N        0.30488    0.51994    0.87798    1.000
    Si2237   Si       0.31805    0.50478    0.91660    1.000
    N2238    N        0.28408    0.49559    0.94220    1.000
    Si2239   Si       0.24897    0.52250    0.95078    1.000
    N2240    N        0.34137    0.53756    0.93323    1.000
    Si2241   Si       0.42316    0.50291    0.93241    1.000
    N2242    N        0.44503    0.48279    0.90222    1.000
    N2243    N        0.44328    0.53019    0.96147    1.000
    Si2244   Si       0.28754    0.56087    0.07436    1.000
    N2245    N        0.33016    0.55388    0.07362    1.000
    Si2246   Si       0.25864    0.55836    0.00442    1.000
    N2247    N        0.27596    0.54841    0.11383    1.000
    Si2248   Si       0.35642    0.55517    0.03966    1.000
    N2249    N        0.26720    0.54014    0.04312    1.000
    N2250    N        0.44429    0.56188    0.02439    1.000
    Si2251   Si       0.43152    0.55880    0.06607    1.000
    N2252    N        0.46420    0.54633    0.09316    1.000
    Si2253   Si       0.32752    0.56642    0.20504    1.000
    N2254    N        0.29271    0.55202    0.18255    1.000
    Si2255   Si       0.27923    0.57512    0.15010    1.000
    N2256    N        0.35971    0.57365    0.17792    1.000
    N2257    N        0.34742    0.55416    0.24191    1.000
    Si2258   Si       0.38830    0.56497    0.24228    1.000
    Si2259   Si       0.46183    0.57430    0.16191    1.000
    N2260    N        0.40398    0.53977    0.21068    1.000
    Si2261   Si       0.39615    0.55093    0.16942    1.000
    N2262    N        0.41909    0.58726    0.16136    1.000
    Si2263   Si       0.26899    0.56158    0.35685    1.000
    N2264    N        0.28408    0.56096    0.27405    1.000
    Si2265   Si       0.32801    0.56467    0.28007    1.000
    Si2266   Si       0.33845    0.54482    0.35419    1.000
    N2267    N        0.30808    0.57554    0.36801    1.000
    N2268    N        0.25205    0.59155    0.33235    1.000
    Si2269   Si       0.26162    0.59347    0.29029    1.000
    N2270    N        0.41174    0.56292    0.28035    1.000
    Si2271   Si       0.41220    0.56283    0.36378    1.000
    Si2272   Si       0.44371    0.58821    0.30010    1.000
    N2273    N        0.48424    0.57382    0.29268    1.000
    N2274    N        0.42720    0.59569    0.34046    1.000
    N2275    N        0.37025    0.57375    0.36174    1.000
    Si2276   Si       0.33804    0.57381    0.44769    1.000
    N2277    N        0.25680    0.55771    0.39862    1.000
    Si2278   Si       0.27659    0.55524    0.46821    1.000
    Si2279   Si       0.28374    0.59166    0.40814    1.000
    N2280    N        0.30820    0.54085    0.44183    1.000
    N2281    N        0.34021    0.59342    0.48762    1.000
    N2282    N        0.27133    0.59397    0.45135    1.000
    N2283    N        0.43155    0.55182    0.40242    1.000
    Si2284   Si       0.45803    0.54375    0.43831    1.000
    N2285    N        0.37367    0.55173    0.43999    1.000
    N2286    N        0.47217    0.57119    0.46877    1.000
    Si2287   Si       0.32825    0.57064    0.60209    1.000
    Si2288   Si       0.32906    0.57078    0.52361    1.000
    N2289    N        0.29473    0.54923    0.50844    1.000
    N2290    N        0.31308    0.58302    0.56168    1.000
    N2291    N        0.36884    0.55559    0.53633    1.000
    N2292    N        0.37031    0.57429    0.61255    1.000
    Si2293   Si       0.41025    0.57055    0.53338    1.000
    Si2294   Si       0.44651    0.57780    0.60132    1.000
    N2295    N        0.48935    0.58060    0.60261    1.000
    N2296    N        0.43156    0.53834    0.60585    1.000
    N2297    N        0.40839    0.59956    0.50008    1.000
    N2298    N        0.34803    0.57579    0.68572    1.000
    N2299    N        0.28329    0.58383    0.69530    1.000
    Si2300   Si       0.31352    0.55797    0.71480    1.000
    Si2301   Si       0.34414    0.54146    0.66137    1.000
    N2302    N        0.31767    0.53798    0.62826    1.000
    Si2303   Si       0.42160    0.55947    0.71690    1.000
    N2304    N        0.44506    0.55335    0.68118    1.000
    N2305    N        0.25540    0.54756    0.84884    1.000
    N2306    N        0.31211    0.54779    0.80914    1.000
    Si2307   Si       0.25213    0.56815    0.75184    1.000
    Si2308   Si       0.30240    0.59025    0.80470    1.000
    N2309    N        0.33574    0.56011    0.75162    1.000
    Si2310   Si       0.26369    0.58606    0.86798    1.000
    N2311    N        0.36630    0.54112    0.85897    1.000
    Si2312   Si       0.46972    0.56060    0.84196    1.000
    N2313    N        0.45555    0.58227    0.80788    1.000
    Si2314   Si       0.42268    0.56777    0.78364    1.000
    N2315    N        0.44969    0.56499    0.74837    1.000
    N2316    N        0.24334    0.54435    0.91027    1.000
    Si2317   Si       0.25831    0.58452    0.93217    1.000
    N2318    N        0.27905    0.55786    0.96454    1.000
    Si2319   Si       0.32269    0.55570    0.96760    1.000
    N2320    N        0.29248    0.59029    0.90042    1.000
    N2321    N        0.40853    0.58836    0.97437    1.000
    Si2322   Si       0.43149    0.56777    0.94035    1.000
    Si2323   Si       0.36886    0.54896    0.90144    1.000
    N2324    N        0.47505    0.59213    0.96851    1.000
    N2325    N        0.36710    0.59207    0.90514    1.000
    N2326    N        0.40916    0.54080    0.91372    1.000
    Si2327   Si       0.29670    0.62741    0.09743    1.000
    N2328    N        0.32760    0.64360    0.07089    1.000
    N2329    N        0.26970    0.60030    0.07434    1.000
    N2330    N        0.30887    0.65355    0.00443    1.000
    N2331    N        0.24041    0.59456    0.01301    1.000
    Si2332   Si       0.36860    0.62468    0.07147    1.000
    Si2333   Si       0.45377    0.63236    0.05896    1.000
    N2334    N        0.44926    0.63631    0.01543    1.000
    N2335    N        0.37395    0.60756    0.11143    1.000
    N2336    N        0.42786    0.60254    0.07854    1.000
    Si2337   Si       0.41683    0.60892    0.12171    1.000
    Si2338   Si       0.44382    0.59634    0.99783    1.000
    N2339    N        0.36997    0.59735    0.03631    1.000
    N2340    N        0.24692    0.64492    0.21789    1.000
    Si2341   Si       0.27719    0.62572    0.19488    1.000
    Si2342   Si       0.34485    0.62294    0.23818    1.000
    N2343    N        0.31244    0.60577    0.21524    1.000
    N2344    N        0.30946    0.60229    0.13205    1.000
    Si2345   Si       0.34843    0.60443    0.14699    1.000
    N2346    N        0.25233    0.59942    0.17180    1.000
    N2347    N        0.47143    0.60172    0.12794    1.000
    Si2348   Si       0.41900    0.64121    0.24295    1.000
    N2349    N        0.36793    0.63800    0.17051    1.000
    N2350    N        0.42845    0.64121    0.20173    1.000
    Si2351   Si       0.39852    0.61425    0.18995    1.000
    N2352    N        0.42809    0.65009    0.13099    1.000
    Si2353   Si       0.47816    0.64467    0.12362    1.000
    N2354    N        0.38632    0.60944    0.23321    1.000
    Si2355   Si       0.32056    0.64272    0.30093    1.000
    N2356    N        0.33786    0.63625    0.34180    1.000
    N2357    N        0.27725    0.63425    0.28643    1.000
    N2358    N        0.33680    0.60773    0.27904    1.000
    Si2359   Si       0.24239    0.64369    0.26110    1.000
    Si2360   Si       0.44100    0.63564    0.34980    1.000
    N2361    N        0.44452    0.62330    0.27322    1.000
    N2362    N        0.47996    0.62815    0.33245    1.000
    Si2363   Si       0.48519    0.63527    0.28851    1.000
    Si2364   Si       0.34298    0.60666    0.37382    1.000
    Si2365   Si       0.25366    0.62594    0.47531    1.000
    N2366    N        0.26264    0.62342    0.38721    1.000
    N2367    N        0.33094    0.60436    0.41845    1.000
    Si2368   Si       0.34265    0.64641    0.42496    1.000
    N2369    N        0.44147    0.63251    0.44651    1.000
    N2370    N        0.37344    0.64728    0.45556    1.000
    N2371    N        0.37349    0.64551    0.39306    1.000
    Si2372   Si       0.44747    0.60609    0.48020    1.000
    Si2373   Si       0.37159    0.62356    0.49218    1.000
    N2374    N        0.43954    0.65163    0.39013    1.000
    Si2375   Si       0.40915    0.65189    0.42138    1.000
    Si2376   Si       0.47398    0.65471    0.42304    1.000
    Si2377   Si       0.28805    0.61366    0.58089    1.000
    N2378    N        0.24664    0.60515    0.57743    1.000
    N2379    N        0.28361    0.64445    0.49891    1.000
    N2380    N        0.30687    0.60374    0.61980    1.000
    N2381    N        0.30600    0.65061    0.56721    1.000
    N2382    N        0.37527    0.64161    0.59491    1.000
    Si2383   Si       0.45424    0.62956    0.54819    1.000
    N2384    N        0.47110    0.62597    0.51035    1.000
    N2385    N        0.48210    0.64206    0.57906    1.000
    N2386    N        0.43308    0.59606    0.56238    1.000
    Si2387   Si       0.24478    0.61108    0.70056    1.000
    N2388    N        0.24467    0.61842    0.65664    1.000
    Si2389   Si       0.28884    0.60880    0.65782    1.000
    N2390    N        0.34973    0.62779    0.73018    1.000
    N2391    N        0.30117    0.64646    0.67601    1.000
    N2392    N        0.25120    0.64628    0.72396    1.000
    N2393    N        0.47993    0.61812    0.68038    1.000
    N2394    N        0.41118    0.60247    0.70506    1.000
    N2395    N        0.36628    0.63573    0.65886    1.000
    N2396    N        0.42683    0.60100    0.63344    1.000
    Si2397   Si       0.36799    0.61290    0.69585    1.000
    Si2398   Si       0.38596    0.61219    0.62633    1.000
    Si2399   Si       0.44353    0.59655    0.67304    1.000
    Si2400   Si       0.41564    0.63019    0.74167    1.000
    N2401    N        0.28351    0.60941    0.83880    1.000
    Si2402   Si       0.27072    0.64402    0.76275    1.000
    N2403    N        0.34286    0.60795    0.80082    1.000
    N2404    N        0.33868    0.63679    0.86472    1.000
    Si2405   Si       0.35481    0.59717    0.76143    1.000
    Si2406   Si       0.28071    0.65221    0.83573    1.000
    N2407    N        0.27861    0.60159    0.76874    1.000
    N2408    N        0.25408    0.65489    0.80038    1.000
    Si2409   Si       0.36720    0.62454    0.83229    1.000
    N2410    N        0.39767    0.60065    0.76908    1.000
    N2411    N        0.40595    0.62115    0.85311    1.000
    Si2412   Si       0.47748    0.59562    0.76912    1.000
    N2413    N        0.45898    0.63739    0.74775    1.000
    Si2414   Si       0.32892    0.61582    0.90099    1.000
    N2415    N        0.26657    0.62241    0.95532    1.000
    Si2416   Si       0.30760    0.63042    0.96946    1.000
    N2417    N        0.32694    0.64592    0.93202    1.000
    N2418    N        0.33372    0.59781    0.97673    1.000
    Si2419   Si       0.48207    0.60783    0.90341    1.000
    N2420    N        0.43951    0.59973    0.91138    1.000
    Si2421   Si       0.40157    0.61491    0.89574    1.000
    Si2422   Si       0.37318    0.60585    0.99415    1.000
    N2423    N        0.37845    0.64827    0.99159    1.000
    N2424    N        0.39310    0.65359    0.92107    1.000
    N2425    N        0.35479    0.69570    0.02796    1.000
    Si2426   Si       0.31901    0.67372    0.04045    1.000
    Si2427   Si       0.25758    0.68508    0.07621    1.000
    N2428    N        0.28746    0.70090    0.04851    1.000
    N2429    N        0.27717    0.66335    0.10858    1.000
    N2430    N        0.24084    0.65666    0.04802    1.000
    Si2431   Si       0.41985    0.67628    0.09773    1.000
    Si2432   Si       0.39320    0.67420    0.02368    1.000
    N2433    N        0.46476    0.66572    0.08493    1.000
    N2434    N        0.42659    0.69561    0.00766    1.000
    N2435    N        0.39833    0.65701    0.06546    1.000
    N2436    N        0.40362    0.71175    0.11780    1.000
    Si2437   Si       0.27211    0.68007    0.14636    1.000
    N2438    N        0.34451    0.70656    0.16295    1.000
    N2439    N        0.34346    0.66510    0.22843    1.000
    Si2440   Si       0.34105    0.66840    0.18406    1.000
    N2441    N        0.29695    0.65930    0.17638    1.000
    N2442    N        0.42252    0.70727    0.18129    1.000
    Si2443   Si       0.41402    0.71518    0.22389    1.000
    Si2444   Si       0.43750    0.66881    0.16984    1.000
    N2445    N        0.47973    0.66608    0.16400    1.000
    N2446    N        0.33188    0.68288    0.29003    1.000
    N2447    N        0.36287    0.70350    0.34932    1.000
    Si2448   Si       0.33427    0.71427    0.31830    1.000
    Si2449   Si       0.33697    0.70147    0.25078    1.000
    N2450    N        0.47562    0.67821    0.29372    1.000
    Si2451   Si       0.43356    0.68850    0.29696    1.000
    N2452    N        0.41727    0.68275    0.25619    1.000
    Si2453   Si       0.37540    0.66065    0.35215    1.000
    N2454    N        0.41318    0.66209    0.32893    1.000
    Si2455   Si       0.30679    0.70743    0.44206    1.000
    N2456    N        0.25391    0.69227    0.38202    1.000
    N2457    N        0.30706    0.66814    0.42293    1.000
    Si2458   Si       0.26592    0.66104    0.40908    1.000
    N2459    N        0.27760    0.71197    0.47602    1.000
    N2460    N        0.47321    0.69348    0.49251    1.000
    N2461    N        0.40919    0.69374    0.43516    1.000
    Si2462   Si       0.38037    0.68890    0.46505    1.000
    N2463    N        0.47892    0.69940    0.42252    1.000
    Si2464   Si       0.33955    0.66668    0.59080    1.000
    N2465    N        0.31645    0.70433    0.52720    1.000
    Si2466   Si       0.31147    0.66105    0.52390    1.000
    Si2467   Si       0.36122    0.70202    0.52850    1.000
    N2468    N        0.35449    0.65682    0.51558    1.000
    N2469    N        0.36682    0.69718    0.57102    1.000
    N2470    N        0.39747    0.70683    0.50163    1.000
    N2471    N        0.42926    0.68491    0.60787    1.000
    Si2472   Si       0.47119    0.68057    0.59682    1.000
    Si2473   Si       0.40186    0.67086    0.57644    1.000
    Si2474   Si       0.43748    0.69721    0.51749    1.000
    N2475    N        0.42684    0.66338    0.54230    1.000
    N2476    N        0.48954    0.70881    0.56702    1.000
    N2477    N        0.26831    0.70688    0.69423    1.000
    Si2478   Si       0.28521    0.67199    0.71025    1.000
    N2479    N        0.32530    0.69133    0.62514    1.000
    Si2480   Si       0.35081    0.67196    0.73530    1.000
    N2481    N        0.34071    0.69333    0.69680    1.000
    Si2482   Si       0.33580    0.66741    0.66264    1.000
    Si2483   Si       0.41685    0.70132    0.70824    1.000
    N2484    N        0.39828    0.66776    0.72623    1.000
    N2485    N        0.45694    0.68749    0.69166    1.000
    Si2486   Si       0.47700    0.65224    0.70781    1.000
    N2487    N        0.31109    0.67789    0.81869    1.000
    Si2488   Si       0.31262    0.70016    0.78289    1.000
    Si2489   Si       0.34170    0.67889    0.85048    1.000
    N2490    N        0.35284    0.70625    0.76495    1.000
    N2491    N        0.30286    0.67000    0.75063    1.000
    Si2492   Si       0.47640    0.67394    0.85842    1.000
    N2493    N        0.37996    0.66964    0.82959    1.000
    N2494    N        0.45706    0.66022    0.82022    1.000
    Si2495   Si       0.42072    0.66032    0.84260    1.000
    Si2496   Si       0.47890    0.65696    0.78224    1.000
    N2497    N        0.25912    0.66739    0.87057    1.000
    Si2498   Si       0.24420    0.69605    0.90235    1.000
    N2499    N        0.32552    0.70116    0.88285    1.000
    N2500    N        0.34688    0.70091    0.95015    1.000
    Si2501   Si       0.31560    0.68748    0.92259    1.000
    N2502    N        0.27744    0.70757    0.93130    1.000
    Si2503   Si       0.36481    0.66197    0.95115    1.000
    Si2504   Si       0.45707    0.66883    0.98795    1.000
    N2505    N        0.43688    0.68094    0.87598    1.000
    N2506    N        0.44907    0.68697    0.94865    1.000
    Si2507   Si       0.42130    0.68760    0.91634    1.000
    Si2508   Si       0.26943    0.72888    0.01934    1.000
    N2509    N        0.33547    0.74980    0.10661    1.000
    N2510    N        0.26769    0.76785    0.10244    1.000
    N2511    N        0.34784    0.76601    0.03355    1.000
    Si2512   Si       0.34310    0.72857    0.00226    1.000
    N2513    N        0.47310    0.72196    0.04452    1.000
    Si2514   Si       0.44211    0.73481    0.02074    1.000
    N2515    N        0.41661    0.76625    0.03289    1.000
    N2516    N        0.23493    0.73128    0.21360    1.000
    Si2517   Si       0.29863    0.75683    0.13091    1.000
    Si2518   Si       0.31493    0.73006    0.18404    1.000
    N2519    N        0.28028    0.72255    0.15390    1.000
    Si2520   Si       0.26816    0.74387    0.23704    1.000
    N2521    N        0.30740    0.72403    0.22520    1.000
    N2522    N        0.31166    0.77161    0.17253    1.000
    Si2523   Si       0.36343    0.72834    0.13210    1.000
    N2524    N        0.37276    0.72557    0.23801    1.000
    N2525    N        0.38471    0.76295    0.15287    1.000
    Si2526   Si       0.42028    0.73695    0.14964    1.000
    N2527    N        0.44820    0.74034    0.23591    1.000
    N2528    N        0.45694    0.75995    0.14292    1.000
    N2529    N        0.33408    0.74702    0.28809    1.000
    Si2530   Si       0.29072    0.75278    0.30269    1.000
    N2531    N        0.30088    0.73286    0.34068    1.000
    N2532    N        0.26494    0.72934    0.27721    1.000
    Si2533   Si       0.36346    0.76248    0.25758    1.000
    N2534    N        0.43879    0.73080    0.31062    1.000
    Si2535   Si       0.45692    0.73709    0.34849    1.000
    Si2536   Si       0.44074    0.75723    0.27624    1.000
    Si2537   Si       0.38419    0.73842    0.36850    1.000
    N2538    N        0.24428    0.76308    0.37868    1.000
    Si2539   Si       0.27474    0.73212    0.37541    1.000
    N2540    N        0.29597    0.73775    0.41179    1.000
    Si2541   Si       0.36045    0.75499    0.44481    1.000
    N2542    N        0.34666    0.71554    0.45581    1.000
    N2543    N        0.45185    0.74857    0.45103    1.000
    N2544    N        0.39269    0.76730    0.46950    1.000
    N2545    N        0.42628    0.72796    0.37759    1.000
    Si2546   Si       0.44059    0.72077    0.41767    1.000
    N2547    N        0.36425    0.75648    0.40201    1.000
    Si2548   Si       0.48543    0.72149    0.46102    1.000
    N2549    N        0.32627    0.75377    0.59382    1.000
    Si2550   Si       0.28705    0.73270    0.51283    1.000
    N2551    N        0.25451    0.73953    0.54252    1.000
    Si2552   Si       0.23920    0.74715    0.58516    1.000
    N2553    N        0.26582    0.74517    0.62112    1.000
    Si2554   Si       0.36384    0.73997    0.57900    1.000
    N2555    N        0.36538    0.75028    0.53642    1.000
    N2556    N        0.39711    0.74679    0.60536    1.000
    N2557    N        0.44041    0.73880    0.53021    1.000
    Si2558   Si       0.40360    0.75204    0.51015    1.000
    Si2559   Si       0.47477    0.74791    0.55265    1.000
    N2560    N        0.24664    0.75506    0.73793    1.000
    Si2561   Si       0.30823    0.73183    0.62871    1.000
    N2562    N        0.32456    0.75230    0.66185    1.000
    Si2563   Si       0.35426    0.73287    0.68674    1.000
    Si2564   Si       0.24589    0.76950    0.65339    1.000
    Si2565   Si       0.41256    0.71707    0.63220    1.000
    N2566    N        0.41918    0.73143    0.74055    1.000
    N2567    N        0.39557    0.71768    0.67349    1.000
    N2568    N        0.36425    0.75951    0.72059    1.000
    Si2569   Si       0.47721    0.71415    0.66309    1.000
    N2570    N        0.45122    0.74120    0.64009    1.000
    N2571    N        0.29272    0.73745    0.78979    1.000
    N2572    N        0.28122    0.75255    0.85854    1.000
    N2573    N        0.34251    0.75781    0.84961    1.000
    Si2574   Si       0.30650    0.76328    0.82387    1.000
    Si2575   Si       0.25184    0.74760    0.77898    1.000
    N2576    N        0.46404    0.74798    0.79897    1.000
    Si2577   Si       0.37826    0.73852    0.75654    1.000
    Si2578   Si       0.44398    0.76134    0.76251    1.000
    N2579    N        0.41625    0.76357    0.85542    1.000
    N2580    N        0.38314    0.76408    0.79119    1.000
    Si2581   Si       0.37939    0.77358    0.83488    1.000
    N2582    N        0.49337    0.71363    0.85279    1.000
    Si2583   Si       0.24163    0.77187    0.86753    1.000
    N2584    N        0.32430    0.75512    0.92485    1.000
    Si2585   Si       0.29187    0.74455    0.94976    1.000
    Si2586   Si       0.31799    0.74469    0.88290    1.000
    N2587    N        0.30186    0.73326    0.98926    1.000
    Si2588   Si       0.36733    0.74135    0.93778    1.000
    N2589    N        0.37450    0.74677    0.97974    1.000
    N2590    N        0.45795    0.75039    0.98357    1.000
    N2591    N        0.45751    0.74351    0.91201    1.000
    N2592    N        0.39583    0.72194    0.91386    1.000
    Si2593   Si       0.41611    0.75726    0.89850    1.000
    Si2594   Si       0.47055    0.72620    0.95079    1.000
    Si2595   Si       0.26574    0.79232    0.06612    1.000
    N2596    N        0.30468    0.80879    0.06593    1.000
    Si2597   Si       0.33788    0.77969    0.07387    1.000
    N2598    N        0.36403    0.80862    0.09752    1.000
    N2599    N        0.25918    0.77064    0.02803    1.000
    Si2600   Si       0.43033    0.80486    0.04333    1.000
    N2601    N        0.45568    0.80026    0.07775    1.000
    N2602    N        0.46022    0.81351    0.01436    1.000
    Si2603   Si       0.38066    0.77644    0.00962    1.000
    Si2604   Si       0.45546    0.79899    0.12258    1.000
    Si2605   Si       0.31217    0.79743    0.20890    1.000
    N2606    N        0.34736    0.79474    0.23413    1.000
    N2607    N        0.27862    0.78533    0.23815    1.000
    N2608    N        0.48585    0.82909    0.13243    1.000
    Si2609   Si       0.37976    0.80189    0.13655    1.000
    N2610    N        0.41891    0.82104    0.13101    1.000
    N2611    N        0.27398    0.79143    0.31294    1.000
    Si2612   Si       0.27175    0.81255    0.27378    1.000
    Si2613   Si       0.24175    0.79462    0.34820    1.000
    N2614    N        0.47085    0.77676    0.35415    1.000
    N2615    N        0.47146    0.78554    0.28530    1.000
    Si2616   Si       0.39286    0.80008    0.31225    1.000
    Si2617   Si       0.46366    0.80801    0.32519    1.000
    N2618    N        0.42570    0.82785    0.31863    1.000
    N2619    N        0.38433    0.77647    0.34747    1.000
    N2620    N        0.39987    0.77536    0.27666    1.000
    N2621    N        0.25861    0.78573    0.44200    1.000
    N2622    N        0.30642    0.80604    0.38950    1.000
    Si2623   Si       0.24929    0.81560    0.47149    1.000
    Si2624   Si       0.29641    0.78014    0.42209    1.000
    Si2625   Si       0.31402    0.80596    0.48511    1.000
    N2626    N        0.32908    0.78413    0.45060    1.000
    Si2627   Si       0.42943    0.78613    0.45151    1.000
    N2628    N        0.41742    0.79807    0.41034    1.000
    N2629    N        0.45412    0.82196    0.45454    1.000
    Si2630   Si       0.38083    0.79549    0.38616    1.000
    N2631    N        0.29308    0.81379    0.56669    1.000
    Si2632   Si       0.32150    0.79719    0.59279    1.000
    Si2633   Si       0.26447    0.78946    0.54234    1.000
    N2634    N        0.34654    0.82240    0.50960    1.000
    N2635    N        0.36192    0.80743    0.57760    1.000
    N2636    N        0.29592    0.77543    0.51002    1.000
    Si2637   Si       0.36535    0.79558    0.53684    1.000
    N2638    N        0.40798    0.79420    0.52548    1.000
    N2639    N        0.46323    0.78006    0.57842    1.000
    Si2640   Si       0.48810    0.80806    0.55248    1.000
    Si2641   Si       0.43401    0.77057    0.60891    1.000
    Si2642   Si       0.25674    0.79633    0.72555    1.000
    N2643    N        0.31784    0.81594    0.63291    1.000
    Si2644   Si       0.31216    0.79409    0.66977    1.000
    N2645    N        0.33774    0.81453    0.69719    1.000
    N2646    N        0.26977    0.79159    0.68356    1.000
    Si2647   Si       0.43709    0.82376    0.66184    1.000
    N2648    N        0.47482    0.82107    0.68645    1.000
    Si2649   Si       0.37526    0.80232    0.71363    1.000
    N2650    N        0.47468    0.77498    0.73524    1.000
    Si2651   Si       0.44942    0.81144    0.72362    1.000
    N2652    N        0.41269    0.80827    0.69500    1.000
    N2653    N        0.42101    0.81069    0.62374    1.000
    N2654    N        0.30393    0.80600    0.81799    1.000
    Si2655   Si       0.27264    0.81961    0.79031    1.000
    N2656    N        0.24306    0.78581    0.79476    1.000
    N2657    N        0.36085    0.82078    0.75121    1.000
    Si2658   Si       0.33400    0.83222    0.83617    1.000
    N2659    N        0.28488    0.81956    0.74999    1.000
    Si2660   Si       0.47748    0.82389    0.85471    1.000
    N2661    N        0.47989    0.78205    0.86333    1.000
    Si2662   Si       0.38786    0.80809    0.78384    1.000
    N2663    N        0.45839    0.81426    0.81668    1.000
    N2664    N        0.42675    0.80198    0.76393    1.000
    N2665    N        0.37439    0.81660    0.82573    1.000
    Si2666   Si       0.45168    0.77430    0.83186    1.000
    N2667    N        0.26468    0.77990    0.95663    1.000
    N2668    N        0.25842    0.80603    0.89101    1.000
    Si2669   Si       0.24752    0.81080    0.93371    1.000
    Si2670   Si       0.24196    0.78847    0.99277    1.000
    Si2671   Si       0.48436    0.78382    0.99018    1.000
    N2672    N        0.39035    0.81281    0.98661    1.000
    Si2673   Si       0.39853    0.81962    0.94405    1.000
    N2674    N        0.39145    0.78314    0.92164    1.000
    N2675    N        0.34065    0.86991    0.06324    1.000
    N2676    N        0.30199    0.86086    0.01229    1.000
    Si2677   Si       0.30326    0.85007    0.05414    1.000
    N2678    N        0.27939    0.87502    0.07987    1.000
    Si2679   Si       0.37441    0.84835    0.08222    1.000
    Si2680   Si       0.39069    0.85042    0.00925    1.000
    N2681    N        0.38539    0.88032    0.11515    1.000
    N2682    N        0.39961    0.83646    0.04868    1.000
    N2683    N        0.42614    0.87376    0.99737    1.000
    Si2684   Si       0.26579    0.86063    0.19645    1.000
    Si2685   Si       0.34572    0.85755    0.18997    1.000
    N2686    N        0.24896    0.87915    0.23359    1.000
    N2687    N        0.36242    0.86310    0.23247    1.000
    N2688    N        0.30392    0.84061    0.19803    1.000
    N2689    N        0.36813    0.83357    0.16331    1.000
    Si2690   Si       0.48433    0.87087    0.14308    1.000
    Si2691   Si       0.40541    0.85750    0.14901    1.000
    N2692    N        0.41440    0.87225    0.18896    1.000
    Si2693   Si       0.40334    0.88414    0.22845    1.000
    N2694    N        0.44478    0.88683    0.13948    1.000
    N2695    N        0.30446    0.86368    0.34532    1.000
    Si2696   Si       0.30925    0.87158    0.30399    1.000
    N2697    N        0.30551    0.83986    0.27287    1.000
    N2698    N        0.24722    0.83256    0.36931    1.000
    Si2699   Si       0.34654    0.83039    0.25657    1.000
    Si2700   Si       0.40406    0.86095    0.30470    1.000
    N2701    N        0.41876    0.87472    0.26772    1.000
    N2702    N        0.48976    0.87935    0.27146    1.000
    N2703    N        0.36770    0.83136    0.29528    1.000
    Si2704   Si       0.28783    0.84128    0.37858    1.000
    N2705    N        0.28907    0.83782    0.47192    1.000
    Si2706   Si       0.29836    0.87728    0.45124    1.000
    N2707    N        0.29442    0.87447    0.40751    1.000
    N2708    N        0.33650    0.88319    0.46941    1.000
    N2709    N        0.42333    0.87379    0.40552    1.000
    Si2710   Si       0.44127    0.83448    0.41495    1.000
    Si2711   Si       0.39026    0.87795    0.37808    1.000
    Si2712   Si       0.47304    0.85025    0.48240    1.000
    N2713    N        0.45144    0.88863    0.47245    1.000
    N2714    N        0.37271    0.83746    0.37931    1.000
    N2715    N        0.47712    0.83179    0.38973    1.000
    N2716    N        0.31157    0.87215    0.58919    1.000
    Si2717   Si       0.27716    0.85464    0.56827    1.000
    N2718    N        0.25974    0.87229    0.53189    1.000
    Si2719   Si       0.35757    0.86330    0.50315    1.000
    N2720    N        0.41606    0.85138    0.56775    1.000
    N2721    N        0.40231    0.86046    0.50544    1.000
    N2722    N        0.47463    0.88253    0.59528    1.000
    N2723    N        0.46575    0.83490    0.52472    1.000
    Si2724   Si       0.42334    0.83237    0.52948    1.000
    Si2725   Si       0.43695    0.88883    0.57124    1.000
    Si2726   Si       0.39161    0.83199    0.59762    1.000
    Si2727   Si       0.32656    0.85923    0.62723    1.000
    N2728    N        0.31674    0.87741    0.72582    1.000
    N2729    N        0.25560    0.86626    0.67845    1.000
    N2730    N        0.31897    0.88627    0.66031    1.000
    Si2731   Si       0.32213    0.83505    0.73412    1.000
    N2732    N        0.44594    0.85528    0.73626    1.000
    N2733    N        0.38370    0.87140    0.69183    1.000
    N2734    N        0.43517    0.86733    0.65930    1.000
    N2735    N        0.37018    0.85904    0.62398    1.000
    Si2736   Si       0.42611    0.87586    0.70303    1.000
    Si2737   Si       0.39558    0.88793    0.64572    1.000
    N2738    N        0.32050    0.87462    0.82428    1.000
    N2739    N        0.25642    0.85755    0.80322    1.000
    Si2740   Si       0.27847    0.87901    0.83382    1.000
    Si2741   Si       0.40608    0.84678    0.84221    1.000
    N2742    N        0.41977    0.85948    0.80221    1.000
    Si2743   Si       0.45287    0.83910    0.78201    1.000
    N2744    N        0.38005    0.88203    0.85972    1.000
    Si2745   Si       0.47292    0.88845    0.75109    1.000
    N2746    N        0.49254    0.86164    0.77684    1.000
    N2747    N        0.26527    0.87593    0.87524    1.000
    N2748    N        0.27408    0.84681    0.93874    1.000
    Si2749   Si       0.27178    0.86056    0.98065    1.000
    Si2750   Si       0.28507    0.84109    0.89538    1.000
    Si2751   Si       0.35453    0.86911    0.89398    1.000
    N2752    N        0.32565    0.84022    0.87929    1.000
    N2753    N        0.36055    0.87576    0.99445    1.000
    N2754    N        0.43649    0.83976    0.87163    1.000
    Si2755   Si       0.45466    0.84417    0.98254    1.000
    N2756    N        0.44002    0.83291    0.94507    1.000
    N2757    N        0.37866    0.85450    0.92807    1.000
    Si2758   Si       0.45246    0.85803    0.90990    1.000
    N2759    N        0.30367    0.92073    0.03862    1.000
    Si2760   Si       0.31373    0.90276    0.07956    1.000
    N2761    N        0.32786    0.92509    0.11228    1.000
    Si2762   Si       0.25928    0.92407    0.02558    1.000
    Si2763   Si       0.32409    0.89632    0.00855    1.000
    N2764    N        0.24271    0.92735    0.06492    1.000
    N2765    N        0.46409    0.92460    0.00196    1.000
    N2766    N        0.43844    0.91414    0.07064    1.000
    Si2767   Si       0.46680    0.93331    0.04441    1.000
    Si2768   Si       0.42147    0.91020    0.10963    1.000
    Si2769   Si       0.30894    0.91472    0.18546    1.000
    N2770    N        0.31523    0.91493    0.23048    1.000
    N2771    N        0.27263    0.89539    0.17027    1.000
    Si2772   Si       0.24393    0.91887    0.14927    1.000
    N2773    N        0.34535    0.89754    0.17064    1.000
    Si2774   Si       0.36180    0.91320    0.13394    1.000
    Si2775   Si       0.41761    0.94661    0.21510    1.000
    N2776    N        0.39348    0.94162    0.12532    1.000
    N2777    N        0.44030    0.94514    0.17405    1.000
    N2778    N        0.44418    0.91223    0.22509    1.000
    Si2779   Si       0.44820    0.90128    0.18110    1.000
    N2780    N        0.38068    0.92382    0.23160    1.000
    N2781    N        0.29847    0.93751    0.35676    1.000
    N2782    N        0.27662    0.89876    0.29088    1.000
    Si2783   Si       0.35190    0.90149    0.25236    1.000
    Si2784   Si       0.25302    0.94374    0.35905    1.000
    N2785    N        0.34574    0.89576    0.29528    1.000
    Si2786   Si       0.27582    0.91368    0.25117    1.000
    N2787    N        0.24194    0.89839    0.35310    1.000
    Si2788   Si       0.36631    0.91266    0.33048    1.000
    Si2789   Si       0.44323    0.91542    0.33798    1.000
    N2790    N        0.45181    0.93120    0.29471    1.000
    Si2791   Si       0.45418    0.89945    0.26422    1.000
    N2792    N        0.40435    0.89243    0.33553    1.000
    N2793    N        0.47874    0.89153    0.34818    1.000
    N2794    N        0.35307    0.90170    0.37294    1.000
    N2795    N        0.24189    0.94504    0.40323    1.000
    Si2796   Si       0.30982    0.89807    0.37225    1.000
    N2797    N        0.27313    0.91468    0.45878    1.000
    Si2798   Si       0.34909    0.92083    0.49201    1.000
    N2799    N        0.38931    0.92645    0.48043    1.000
    Si2800   Si       0.44688    0.90058    0.43172    1.000
    N2801    N        0.42645    0.93722    0.42631    1.000
    Si2802   Si       0.32552    0.90430    0.56637    1.000
    N2803    N        0.28913    0.92698    0.55530    1.000
    N2804    N        0.33732    0.93866    0.59211    1.000
    Si2805   Si       0.24999    0.91657    0.53345    1.000
    N2806    N        0.34806    0.89686    0.52964    1.000
    N2807    N        0.43227    0.91380    0.53583    1.000
    N2808    N        0.41921    0.90594    0.61046    1.000
    Si2809   Si       0.41757    0.89791    0.49848    1.000
    N2810    N        0.26300    0.92045    0.63243    1.000
    N2811    N        0.28147    0.93322    0.70090    1.000
    Si2812   Si       0.27732    0.90113    0.66953    1.000
    N2813    N        0.36227    0.92790    0.72059    1.000
    Si2814   Si       0.29274    0.91080    0.73897    1.000
    Si2815   Si       0.23914    0.93736    0.71968    1.000
    Si2816   Si       0.34654    0.89199    0.69752    1.000
    Si2817   Si       0.45497    0.89743    0.63229    1.000
    Si2818   Si       0.47060    0.93344    0.69309    1.000
    Si2819   Si       0.39162    0.94006    0.69146    1.000
    N2820    N        0.43020    0.92025    0.70331    1.000
    N2821    N        0.47608    0.92917    0.65128    1.000
    N2822    N        0.37555    0.92475    0.65556    1.000
    N2823    N        0.25835    0.91511    0.82214    1.000
    N2824    N        0.31252    0.93273    0.76908    1.000
    Si2825   Si       0.35308    0.90185    0.82998    1.000
    N2826    N        0.34029    0.93850    0.84863    1.000
    Si2827   Si       0.35575    0.93719    0.76456    1.000
    N2828    N        0.24984    0.91022    0.75163    1.000
    N2829    N        0.44831    0.91690    0.77504    1.000
    N2830    N        0.43417    0.91962    0.83979    1.000
    Si2831   Si       0.41884    0.90165    0.80265    1.000
    N2832    N        0.37675    0.91430    0.79574    1.000
    Si2833   Si       0.46977    0.94385    0.83812    1.000
    Si2834   Si       0.31393    0.92991    0.93874    1.000
    N2835    N        0.33330    0.92649    0.97662    1.000
    N2836    N        0.27154    0.93921    0.94329    1.000
    N2837    N        0.33591    0.89807    0.91924    1.000
    N2838    N        0.24972    0.94490    0.88472    1.000
    N2839    N        0.25085    0.89792    0.99147    1.000
    N2840    N        0.38991    0.94857    0.89168    1.000
    N2841    N        0.43890    0.89866    0.90393    1.000
    N2842    N        0.39391    0.92143    0.95776    1.000
    Si2843   Si       0.40954    0.91394    0.87469    1.000
    Si2844   Si       0.42332    0.91776    0.99319    1.000
    Si2845   Si       0.46129    0.93273    0.91319    1.000
    Si2846   Si       0.36504    0.89046    0.95196    1.000
    Si2847   Si       0.30311    0.96511    0.03310    1.000
    N2848    N        0.28503    0.98051    0.06816    1.000
    Si2849   Si       0.24979    0.96531    0.08879    1.000
    N2850    N        0.33750    0.97988    0.01403    1.000
    N2851    N        0.26689    0.96487    0.00793    1.000
    N2852    N        0.32182    0.99753    0.11880    1.000
    N2853    N        0.45834    0.97478    0.05017    1.000
    Si2854   Si       0.42561    0.98994    0.02300    1.000
    N2855    N        0.40464    0.95487    0.00969    1.000
    Si2856   Si       0.30625    0.95979    0.13208    1.000
    N2857    N        0.33167    0.98367    0.23410    1.000
    N2858    N        0.26482    0.00074    0.20396    1.000
    N2859    N        0.31577    0.95660    0.17643    1.000
    Si2860   Si       0.30592    0.99258    0.19829    1.000
    Si2861   Si       0.35117    0.95146    0.21224    1.000
    N2862    N        0.26393    0.95073    0.12572    1.000
    N2863    N        0.38458    0.97078    0.19160    1.000
    N2864    N        0.44117    0.99488    0.13693    1.000
    Si2865   Si       0.47219    0.96541    0.14975    1.000
    Si2866   Si       0.40598    0.97471    0.15212    1.000
    N2867    N        0.43541    0.97487    0.24278    1.000
    Si2868   Si       0.32081    0.97003    0.33749    1.000
    N2869    N        0.30140    0.97977    0.29773    1.000
    Si2870   Si       0.25830    0.97327    0.28929    1.000
    Si2871   Si       0.32895    0.00544    0.27396    1.000
    N2872    N        0.25565    0.98987    0.36364    1.000
    N2873    N        0.36152    0.95547    0.32415    1.000
    N2874    N        0.32084    0.00735    0.36082    1.000
    N2875    N        0.25555    0.95282    0.24915    1.000
    Si2876   Si       0.46697    0.96877    0.27272    1.000
    Si2877   Si       0.39677    0.97164    0.34116    1.000
    Si2878   Si       0.45879    0.99301    0.34619    1.000
    N2879    N        0.48062    0.99248    0.30645    1.000
    N2880    N        0.43256    0.95339    0.35620    1.000
    N2881    N        0.41644    0.00889    0.33008    1.000
    N2882    N        0.27578    0.98593    0.44708    1.000
    Si2883   Si       0.24854    0.98982    0.40965    1.000
    Si2884   Si       0.28099    0.95310    0.47668    1.000
    N2885    N        0.32247    0.95288    0.48885    1.000
    Si2886   Si       0.48288    0.97435    0.47602    1.000
    Si2887   Si       0.41699    0.97371    0.40345    1.000
    N2888    N        0.44243    0.96689    0.48940    1.000
    N2889    N        0.44384    0.00635    0.38941    1.000
    N2890    N        0.40169    0.99162    0.44160    1.000
    Si2891   Si       0.41161    0.95593    0.46177    1.000
    N2892    N        0.37934    0.98090    0.38167    1.000
    Si2893   Si       0.30594    0.96323    0.57257    1.000
    N2894    N        0.28224    0.98240    0.60346    1.000
    N2895    N        0.31851    0.99568    0.54872    1.000
    N2896    N        0.25314    0.95391    0.50923    1.000
    Si2897   Si       0.35640    0.00316    0.53034    1.000
    N2898    N        0.38716    0.97384    0.53540    1.000
    N2899    N        0.44602    0.98208    0.55855    1.000
    N2900    N        0.39181    0.97774    0.60706    1.000
    Si2901   Si       0.42738    0.95701    0.52854    1.000
    Si2902   Si       0.40657    0.99827    0.57315    1.000
    Si2903   Si       0.48619    0.98835    0.57059    1.000
    Si2904   Si       0.25505    0.96285    0.63228    1.000
    N2905    N        0.26887    0.99030    0.66342    1.000
    Si2906   Si       0.30236    0.96944    0.68471    1.000
    N2907    N        0.33614    0.97519    0.65326    1.000
    N2908    N        0.32809    0.99254    0.71145    1.000
    Si2909   Si       0.35922    0.00161    0.68089    1.000
    Si2910   Si       0.36146    0.95309    0.62554    1.000
    Si2911   Si       0.42974    0.99196    0.71577    1.000
    N2912    N        0.46316    0.00086    0.63184    1.000
    N2913    N        0.47044    0.97738    0.70284    1.000
    N2914    N        0.39835    0.98219    0.68754    1.000
    N2915    N        0.28745    0.97549    0.82611    1.000
    N2916    N        0.35380    0.97921    0.78090    1.000
    Si2917   Si       0.31015    0.96863    0.79024    1.000
    N2918    N        0.29399    0.99917    0.76565    1.000
    Si2919   Si       0.25426    0.95285    0.84094    1.000
    N2920    N        0.34283    0.00495    0.86298    1.000
    N2921    N        0.45794    0.97755    0.81686    1.000
    Si2922   Si       0.45360    0.95979    0.77763    1.000
    Si2923   Si       0.39200    0.00105    0.77837    1.000
    N2924    N        0.41925    0.97635    0.75495    1.000
    Si2925   Si       0.35086    0.96444    0.88049    1.000
    Si2926   Si       0.27236    0.97170    0.91373    1.000
    N2927    N        0.31741    0.96103    0.91051    1.000
    N2928    N        0.24885    0.00569    0.94550    1.000
    Si2929   Si       0.36483    0.95669    0.98737    1.000
    N2930    N        0.44023    0.96396    0.93458    1.000
    Si2931   Si       0.48940    0.99784    0.88002    1.000
    Si2932   Si       0.45162    0.00446    0.94711    1.000
    Si2933   Si       0.39896    0.95540    0.93279    1.000
    N2934    N        0.47724    0.95562    0.88011    1.000
    N2935    N        0.37503    0.98358    0.95399    1.000
    Si2936   Si       0.56974    0.04671    0.06549    1.000
    N2937    N        0.56324    0.03057    0.02485    1.000
    Si2938   Si       0.49931    0.05446    0.06806    1.000
    N2939    N        0.49731    0.04009    0.02679    1.000
    N2940    N        0.57672    0.01263    0.09217    1.000
    N2941    N        0.53755    0.06694    0.08256    1.000
    Si2942   Si       0.52750    0.00861    0.01895    1.000
    Si2943   Si       0.71084    0.04616    0.03388    1.000
    N2944    N        0.69206    0.06350    0.99914    1.000
    Si2945   Si       0.58004    0.01370    0.23592    1.000
    N2946    N        0.54138    0.02582    0.21869    1.000
    N2947    N        0.60255    0.05131    0.14080    1.000
    Si2948   Si       0.59931    0.01020    0.12953    1.000
    N2949    N        0.60839    0.02634    0.20631    1.000
    Si2950   Si       0.60857    0.06352    0.18291    1.000
    Si2951   Si       0.64879    0.01313    0.21572    1.000
    N2952    N        0.70443    0.03166    0.12503    1.000
    N2953    N        0.66851    0.03048    0.18084    1.000
    N2954    N        0.52598    0.03589    0.30593    1.000
    N2955    N        0.58600    0.04235    0.26760    1.000
    Si2956   Si       0.55575    0.06410    0.29024    1.000
    N2957    N        0.62765    0.05671    0.31785    1.000
    N2958    N        0.70829    0.04064    0.27504    1.000
    Si2959   Si       0.65053    0.03700    0.34943    1.000
    Si2960   Si       0.62985    0.04969    0.27534    1.000
    Si2961   Si       0.70910    0.02865    0.35891    1.000
    N2962    N        0.64860    0.01244    0.26086    1.000
    N2963    N        0.68411    0.06369    0.36485    1.000
    Si2964   Si       0.57981    0.02979    0.37731    1.000
    N2965    N        0.54610    0.05575    0.46217    1.000
    Si2966   Si       0.50506    0.04758    0.45366    1.000
    Si2967   Si       0.56865    0.01695    0.45339    1.000
    N2968    N        0.49787    0.01384    0.48422    1.000
    N2969    N        0.49752    0.04209    0.41010    1.000
    N2970    N        0.61356    0.01685    0.45085    1.000
    N2971    N        0.62308    0.02574    0.38241    1.000
    N2972    N        0.67234    0.05082    0.45143    1.000
    Si2973   Si       0.69632    0.02849    0.47969    1.000
    Si2974   Si       0.63211    0.05325    0.46454    1.000
    Si2975   Si       0.58336    0.03779    0.56302    1.000
    N2976    N        0.54700    0.03720    0.53769    1.000
    Si2977   Si       0.51828    0.05847    0.56168    1.000
    N2978    N        0.49641    0.02843    0.58454    1.000
    N2979    N        0.56790    0.02459    0.60367    1.000
    N2980    N        0.60788    0.07166    0.57454    1.000
    N2981    N        0.67151    0.03358    0.56551    1.000
    Si2982   Si       0.64551    0.02748    0.53203    1.000
    N2983    N        0.73012    0.05813    0.60151    1.000
    N2984    N        0.72677    0.04502    0.50811    1.000
    N2985    N        0.63842    0.06254    0.50804    1.000
    Si2986   Si       0.69417    0.06780    0.58057    1.000
    N2987    N        0.50696    0.02902    0.73572    1.000
    N2988    N        0.54609    0.04384    0.65964    1.000
    N2989    N        0.58067    0.02122    0.73412    1.000
    Si2990   Si       0.54568    0.04658    0.74439    1.000
    N2991    N        0.69004    0.02776    0.74490    1.000
    N2992    N        0.70135    0.03143    0.66962    1.000
    Si2993   Si       0.72422    0.02613    0.63237    1.000
    Si2994   Si       0.62035    0.03869    0.73701    1.000
    N2995    N        0.64774    0.03539    0.62694    1.000
    N2996    N        0.63755    0.02062    0.69888    1.000
    Si2997   Si       0.65781    0.04482    0.66864    1.000
    Si2998   Si       0.59536    0.04224    0.80232    1.000
    N2999    N        0.55575    0.05224    0.78665    1.000
    N3000    N        0.58212    0.01819    0.83518    1.000
    Si3001   Si       0.55337    0.03159    0.86830    1.000
    Si3002   Si       0.52247    0.06796    0.81022    1.000
    Si3003   Si       0.69072    0.03997    0.85562    1.000
    N3004    N        0.63339    0.03341    0.78019    1.000
    N3005    N        0.69157    0.01369    0.82009    1.000
    Si3006   Si       0.70826    0.06470    0.75417    1.000
    Si3007   Si       0.52890    0.01152    0.94376    1.000
    N3008    N        0.55025    0.04669    0.95851    1.000
    Si3009   Si       0.57831    0.05500    0.99034    1.000
    N3010    N        0.58500    0.05711    0.88676    1.000
    Si3011   Si       0.56283    0.06867    0.92089    1.000
    N3012    N        0.55179    0.00606    0.90664    1.000
    N3013    N        0.61985    0.04152    0.98491    1.000
    N3014    N        0.70619    0.02680    0.89425    1.000
    Si3015   Si       0.66744    0.03720    0.91391    1.000
    N3016    N        0.65037    0.03982    0.87407    1.000
    Si3017   Si       0.54395    0.10765    0.09850    1.000
    N3018    N        0.60103    0.07712    0.06726    1.000
    Si3019   Si       0.60583    0.10611    0.03407    1.000
    N3020    N        0.57626    0.09690    0.00409    1.000
    N3021    N        0.58109    0.11532    0.11819    1.000
    Si3022   Si       0.61055    0.08148    0.11042    1.000
    Si3023   Si       0.67855    0.10367    0.04046    1.000
    N3024    N        0.64423    0.09849    0.01577    1.000
    N3025    N        0.65247    0.08577    0.11337    1.000
    N3026    N        0.69791    0.07377    0.06618    1.000
    Si3027   Si       0.69307    0.06963    0.10805    1.000
    N3028    N        0.71291    0.12654    0.02875    1.000
    N3029    N        0.50840    0.08332    0.19138    1.000
    N3030    N        0.57745    0.08528    0.20031    1.000
    N3031    N        0.51056    0.11087    0.12806    1.000
    Si3032   Si       0.50649    0.12047    0.17036    1.000
    Si3033   Si       0.54032    0.06981    0.21735    1.000
    N3034    N        0.71023    0.07657    0.20789    1.000
    N3035    N        0.70693    0.09228    0.14702    1.000
    Si3036   Si       0.73682    0.09995    0.18351    1.000
    N3037    N        0.64265    0.09217    0.18516    1.000
    Si3038   Si       0.68056    0.07061    0.17512    1.000
    Si3039   Si       0.50453    0.11117    0.27578    1.000
    N3040    N        0.57712    0.09986    0.30483    1.000
    Si3041   Si       0.60266    0.08825    0.33759    1.000
    N3042    N        0.53536    0.08692    0.25713    1.000
    N3043    N        0.57566    0.07148    0.36753    1.000
    N3044    N        0.51034    0.09573    0.36682    1.000
    N3045    N        0.71059    0.11195    0.26751    1.000
    N3046    N        0.65653    0.07940    0.25619    1.000
    N3047    N        0.62864    0.11157    0.36305    1.000
    Si3048   Si       0.69895    0.07270    0.24854    1.000
    Si3049   Si       0.66663    0.12270    0.26788    1.000
    Si3050   Si       0.67036    0.10461    0.37037    1.000
    Si3051   Si       0.56205    0.09653    0.46236    1.000
    N3052    N        0.60330    0.08778    0.46251    1.000
    Si3053   Si       0.54991    0.10157    0.38217    1.000
    N3054    N        0.54747    0.11154    0.42280    1.000
    Si3055   Si       0.69353    0.08696    0.44095    1.000
    N3056    N        0.67669    0.11372    0.41264    1.000
    N3057    N        0.69690    0.10275    0.48114    1.000
    N3058    N        0.73536    0.07847    0.43629    1.000
    N3059    N        0.54111    0.08590    0.58691    1.000
    Si3060   Si       0.59543    0.11180    0.56732    1.000
    N3061    N        0.58272    0.10677    0.52435    1.000
    N3062    N        0.48993    0.08061    0.53815    1.000
    Si3063   Si       0.61998    0.10136    0.50225    1.000
    N3064    N        0.70159    0.09774    0.54893    1.000
    N3065    N        0.66766    0.09579    0.60445    1.000
    Si3066   Si       0.72132    0.08725    0.51196    1.000
    Si3067   Si       0.63192    0.07048    0.60995    1.000
    Si3068   Si       0.67240    0.12492    0.56903    1.000
    Si3069   Si       0.55838    0.06975    0.62740    1.000
    N3070    N        0.60040    0.08187    0.63625    1.000
    N3071    N        0.53485    0.10475    0.65144    1.000
    Si3072   Si       0.58092    0.10704    0.73413    1.000
    N3073    N        0.54656    0.08185    0.72163    1.000
    Si3074   Si       0.52665    0.07508    0.68428    1.000
    N3075    N        0.59108    0.12468    0.69566    1.000
    N3076    N        0.61389    0.08132    0.74730    1.000
    N3077    N        0.65465    0.08732    0.67982    1.000
    N3078    N        0.71979    0.08537    0.71967    1.000
    Si3079   Si       0.61746    0.10809    0.66644    1.000
    Si3080   Si       0.68841    0.10911    0.69883    1.000
    Si3081   Si       0.67322    0.12988    0.63196    1.000
    N3082    N        0.51133    0.10410    0.79175    1.000
    N3083    N        0.53242    0.06935    0.85187    1.000
    N3084    N        0.61433    0.07812    0.82117    1.000
    N3085    N        0.68003    0.08460    0.78021    1.000
    N3086    N        0.70141    0.08209    0.84935    1.000
    Si3087   Si       0.70086    0.10490    0.81286    1.000
    Si3088   Si       0.63842    0.07939    0.78484    1.000
    Si3089   Si       0.67733    0.11724    0.86835    1.000
    Si3090   Si       0.61906    0.07110    0.86447    1.000
    N3091    N        0.52693    0.12705    0.96207    1.000
    Si3092   Si       0.52108    0.10363    0.87750    1.000
    N3093    N        0.59313    0.09456    0.94122    1.000
    N3094    N        0.52134    0.07823    0.91237    1.000
    Si3095   Si       0.56967    0.12284    0.96901    1.000
    Si3096   Si       0.70502    0.08067    0.95980    1.000
    N3097    N        0.63921    0.10615    0.88227    1.000
    N3098    N        0.70990    0.12204    0.96045    1.000
    N3099    N        0.66334    0.07247    0.94051    1.000
    Si3100   Si       0.63270    0.10573    0.92533    1.000
    Si3101   Si       0.65042    0.07063    0.98467    1.000
    Si3102   Si       0.51231    0.15074    0.03304    1.000
    N3103    N        0.54334    0.16923    0.00848    1.000
    N3104    N        0.60564    0.14770    0.04479    1.000
    Si3105   Si       0.58142    0.17926    0.02647    1.000
    N3106    N        0.53709    0.13332    0.06403    1.000
    Si3107   Si       0.71100    0.14922    0.06581    1.000
    Si3108   Si       0.63574    0.16750    0.06740    1.000
    N3109    N        0.66769    0.13823    0.06724    1.000
    N3110    N        0.72429    0.14278    0.10530    1.000
    N3111    N        0.62682    0.17713    0.10888    1.000
    N3112    N        0.53992    0.14418    0.18315    1.000
    Si3113   Si       0.59729    0.15508    0.13299    1.000
    N3114    N        0.60819    0.14732    0.17373    1.000
    N3115    N        0.58230    0.14442    0.24132    1.000
    Si3116   Si       0.57663    0.13014    0.20058    1.000
    N3117    N        0.56311    0.18335    0.13172    1.000
    N3118    N        0.65700    0.14609    0.23058    1.000
    Si3119   Si       0.70799    0.13421    0.14236    1.000
    N3120    N        0.67573    0.15494    0.16330    1.000
    Si3121   Si       0.64633    0.13553    0.19059    1.000
    N3122    N        0.51861    0.13970    0.30661    1.000
    N3123    N        0.58189    0.17760    0.29225    1.000
    Si3124   Si       0.59151    0.13543    0.28253    1.000
    Si3125   Si       0.54056    0.17709    0.31020    1.000
    Si3126   Si       0.49614    0.12899    0.34139    1.000
    N3127    N        0.57032    0.14232    0.36962    1.000
    N3128    N        0.50354    0.16199    0.36854    1.000
    Si3129   Si       0.65616    0.16073    0.32231    1.000
    Si3130   Si       0.72768    0.15517    0.34740    1.000
    N3131    N        0.68715    0.13837    0.34744    1.000
    N3132    N        0.63340    0.13406    0.29491    1.000
    N3133    N        0.68037    0.17706    0.28664    1.000
    N3134    N        0.62615    0.18221    0.34668    1.000
    Si3135   Si       0.61119    0.14923    0.37546    1.000
    Si3136   Si       0.53072    0.14640    0.43956    1.000
    Si3137   Si       0.54463    0.17629    0.37626    1.000
    N3138    N        0.54703    0.13618    0.47853    1.000
    N3139    N        0.64038    0.13846    0.49468    1.000
    N3140    N        0.67321    0.18070    0.45206    1.000
    Si3141   Si       0.68014    0.14607    0.47964    1.000
    N3142    N        0.61605    0.17387    0.41236    1.000
    N3143    N        0.52306    0.14624    0.54967    1.000
    Si3144   Si       0.55597    0.14125    0.52077    1.000
    N3145    N        0.57906    0.13820    0.59700    1.000
    N3146    N        0.57915    0.17553    0.53771    1.000
    N3147    N        0.51072    0.15410    0.61657    1.000
    Si3148   Si       0.53665    0.13041    0.59178    1.000
    Si3149   Si       0.60690    0.16811    0.61988    1.000
    N3150    N        0.63277    0.13159    0.55452    1.000
    N3151    N        0.68488    0.15471    0.59873    1.000
    Si3152   Si       0.62558    0.16783    0.52343    1.000
    N3153    N        0.70823    0.16821    0.50318    1.000
    Si3154   Si       0.48978    0.16773    0.70941    1.000
    Si3155   Si       0.57469    0.16588    0.68765    1.000
    N3156    N        0.53083    0.16305    0.69048    1.000
    Si3157   Si       0.51184    0.14093    0.65886    1.000
    N3158    N        0.73726    0.18360    0.63663    1.000
    Si3159   Si       0.66601    0.17546    0.74256    1.000
    N3160    N        0.63306    0.14321    0.64430    1.000
    N3161    N        0.69944    0.13439    0.66448    1.000
    N3162    N        0.67887    0.13660    0.72855    1.000
    Si3163   Si       0.73135    0.16154    0.67441    1.000
    N3164    N        0.52965    0.16933    0.81076    1.000
    Si3165   Si       0.52771    0.14330    0.77697    1.000
    Si3166   Si       0.59372    0.17401    0.75745    1.000
    N3167    N        0.56759    0.13779    0.76077    1.000
    Si3168   Si       0.49418    0.15899    0.83374    1.000
    N3169    N        0.49537    0.16214    0.75151    1.000
    N3170    N        0.48776    0.12965    0.86793    1.000
    N3171    N        0.67538    0.13678    0.82755    1.000
    Si3172   Si       0.65912    0.17076    0.80519    1.000
    N3173    N        0.63411    0.16291    0.77109    1.000
    N3174    N        0.59466    0.18274    0.88704    1.000
    Si3175   Si       0.56343    0.16267    0.90862    1.000
    N3176    N        0.57719    0.16163    0.94879    1.000
    Si3177   Si       0.52968    0.17204    0.96373    1.000
    N3178    N        0.48927    0.18288    0.97697    1.000
    N3179    N        0.55394    0.12896    0.88523    1.000
    N3180    N        0.64297    0.14441    0.94366    1.000
    Si3181   Si       0.68508    0.15056    0.93698    1.000
    Si3182   Si       0.73287    0.13922    0.99258    1.000
    N3183    N        0.69932    0.14142    0.89719    1.000
    Si3184   Si       0.61627    0.17771    0.95399    1.000
    N3185    N        0.57697    0.20629    0.05882    1.000
    N3186    N        0.52675    0.22672    0.09983    1.000
    Si3187   Si       0.56747    0.21398    0.10117    1.000
    Si3188   Si       0.49905    0.21208    0.06900    1.000
    N3189    N        0.49603    0.23421    0.03231    1.000
    N3190    N        0.60239    0.23710    0.11991    1.000
    N3191    N        0.71776    0.19035    0.05559    1.000
    Si3192   Si       0.62863    0.22885    0.01148    1.000
    N3193    N        0.64869    0.20700    0.04716    1.000
    Si3194   Si       0.68900    0.22131    0.05869    1.000
    N3195    N        0.68091    0.22856    0.10263    1.000
    Si3196   Si       0.49424    0.23179    0.12809    1.000
    N3197    N        0.52127    0.22470    0.17134    1.000
    N3198    N        0.56856    0.19986    0.20353    1.000
    Si3199   Si       0.55173    0.23911    0.20652    1.000
    Si3200   Si       0.54554    0.18574    0.16942    1.000
    Si3201   Si       0.58263    0.19022    0.24510    1.000
    N3202    N        0.49282    0.20456    0.22627    1.000
    Si3203   Si       0.48244    0.22372    0.18945    1.000
    Si3204   Si       0.64132    0.21682    0.12177    1.000
    N3205    N        0.65719    0.22543    0.16247    1.000
    Si3206   Si       0.72200    0.22531    0.23935    1.000
    N3207    N        0.71986    0.20381    0.15699    1.000
    N3208    N        0.68963    0.20249    0.22037    1.000
    Si3209   Si       0.71473    0.23537    0.12760    1.000
    Si3210   Si       0.68354    0.19538    0.17843    1.000
    N3211    N        0.62610    0.20885    0.24552    1.000
    N3212    N        0.55610    0.20323    0.34320    1.000
    N3213    N        0.51652    0.19885    0.28315    1.000
    Si3214   Si       0.59618    0.20458    0.32518    1.000
    Si3215   Si       0.51804    0.23537    0.25860    1.000
    N3216    N        0.56322    0.23314    0.25182    1.000
    N3217    N        0.61414    0.23784    0.30432    1.000
    N3218    N        0.70581    0.24035    0.27714    1.000
    Si3219   Si       0.71588    0.20203    0.29482    1.000
    N3220    N        0.72689    0.20072    0.33729    1.000
    Si3221   Si       0.70191    0.23241    0.36027    1.000
    Si3222   Si       0.66130    0.18578    0.24786    1.000
    N3223    N        0.54016    0.18420    0.41916    1.000
    N3224    N        0.57107    0.23500    0.46691    1.000
    Si3225   Si       0.54306    0.22565    0.43441    1.000
    N3226    N        0.50641    0.23892    0.45445    1.000
    N3227    N        0.60887    0.19061    0.48796    1.000
    Si3228   Si       0.69516    0.21169    0.43129    1.000
    N3229    N        0.62955    0.22809    0.43382    1.000
    Si3230   Si       0.63143    0.21224    0.39201    1.000
    N3231    N        0.73615    0.20222    0.42398    1.000
    N3232    N        0.67555    0.21293    0.39037    1.000
    Si3233   Si       0.62993    0.18783    0.45138    1.000
    N3234    N        0.54629    0.21267    0.58181    1.000
    N3235    N        0.52887    0.20929    0.51294    1.000
    Si3236   Si       0.58609    0.20900    0.56498    1.000
    Si3237   Si       0.57318    0.21175    0.50467    1.000
    Si3238   Si       0.52312    0.19204    0.55083    1.000
    N3239    N        0.58772    0.24007    0.53523    1.000
    Si3240   Si       0.50321    0.24017    0.49798    1.000
    N3241    N        0.61585    0.19981    0.59282    1.000
    N3242    N        0.65729    0.19369    0.54173    1.000
    Si3243   Si       0.70091    0.20227    0.53116    1.000
    N3244    N        0.68352    0.22437    0.60463    1.000
    Si3245   Si       0.65140    0.21804    0.57715    1.000
    N3246    N        0.72775    0.19412    0.56411    1.000
    Si3247   Si       0.70980    0.18907    0.60357    1.000
    N3248    N        0.69982    0.24373    0.52009    1.000
    Si3249   Si       0.57801    0.23102    0.66063    1.000
    N3250    N        0.54840    0.23048    0.69345    1.000
    Si3251   Si       0.50756    0.23481    0.67746    1.000
    Si3252   Si       0.56610    0.23537    0.73424    1.000
    N3253    N        0.49927    0.23397    0.63453    1.000
    N3254    N        0.59921    0.19079    0.71579    1.000
    N3255    N        0.58180    0.18865    0.65105    1.000
    Si3256   Si       0.70338    0.22348    0.70589    1.000
    Si3257   Si       0.62535    0.22299    0.70741    1.000
    N3258    N        0.66400    0.20725    0.71480    1.000
    N3259    N        0.73577    0.19418    0.70436    1.000
    N3260    N        0.56677    0.20741    0.76895    1.000
    Si3261   Si       0.54744    0.21076    0.80717    1.000
    N3262    N        0.57552    0.22843    0.83477    1.000
    Si3263   Si       0.60781    0.20712    0.85706    1.000
    N3264    N        0.51602    0.23946    0.80271    1.000
    Si3265   Si       0.72439    0.22032    0.78065    1.000
    N3266    N        0.63934    0.19398    0.83264    1.000
    N3267    N        0.68828    0.19330    0.77632    1.000
    Si3268   Si       0.49543    0.20393    0.89433    1.000
    Si3269   Si       0.53819    0.23121    0.92748    1.000
    N3270    N        0.53263    0.23400    0.96969    1.000
    Si3271   Si       0.49283    0.22561    0.98763    1.000
    N3272    N        0.52824    0.18849    0.91889    1.000
    N3273    N        0.61030    0.19378    0.99334    1.000
    N3274    N        0.50886    0.24448    0.89874    1.000
    N3275    N        0.57683    0.24337    0.91893    1.000
    Si3276   Si       0.73186    0.24007    0.90616    1.000
    N3277    N        0.66411    0.24144    0.99012    1.000
    N3278    N        0.73450    0.20125    0.88340    1.000
    Si3279   Si       0.67638    0.22494    0.94990    1.000
    N3280    N        0.63707    0.21309    0.93638    1.000
    N3281    N        0.70031    0.18887    0.94987    1.000
    Si3282   Si       0.49950    0.27679    0.03996    1.000
    N3283    N        0.52927    0.28749    0.01139    1.000
    N3284    N        0.59403    0.25855    0.00943    1.000
    N3285    N        0.51626    0.30539    0.07068    1.000
    Si3286   Si       0.61064    0.29608    0.02716    1.000
    Si3287   Si       0.52211    0.29879    0.11435    1.000
    N3288    N        0.56689    0.29452    0.12054    1.000
    Si3289   Si       0.68258    0.27331    0.01048    1.000
    N3290    N        0.64884    0.28348    0.03962    1.000
    N3291    N        0.70987    0.25504    0.03924    1.000
    Si3292   Si       0.73532    0.27314    0.06987    1.000
    N3293    N        0.70586    0.29977    0.08869    1.000
    N3294    N        0.48936    0.27732    0.13497    1.000
    Si3295   Si       0.59467    0.27066    0.14601    1.000
    N3296    N        0.51781    0.26363    0.22528    1.000
    N3297    N        0.57367    0.26780    0.18443    1.000
    Si3298   Si       0.59975    0.29573    0.20338    1.000
    Si3299   Si       0.49805    0.30071    0.23604    1.000
    N3300    N        0.61864    0.28224    0.23926    1.000
    N3301    N        0.70587    0.27367    0.15439    1.000
    N3302    N        0.68125    0.27797    0.21136    1.000
    Si3303   Si       0.72016    0.28455    0.19609    1.000
    N3304    N        0.62856    0.28941    0.16923    1.000
    Si3305   Si       0.66556    0.26809    0.17335    1.000
    Si3306   Si       0.65943    0.30181    0.23998    1.000
    N3307    N        0.55085    0.27598    0.32423    1.000
    Si3308   Si       0.50802    0.28208    0.31396    1.000
    N3309    N        0.49899    0.24916    0.34495    1.000
    Si3310   Si       0.60808    0.24636    0.26264    1.000
    N3311    N        0.48799    0.25693    0.28290    1.000
    Si3312   Si       0.54040    0.24352    0.35409    1.000
    Si3313   Si       0.69734    0.27396    0.30174    1.000
    Si3314   Si       0.63185    0.26118    0.33647    1.000
    N3315    N        0.67461    0.25467    0.33479    1.000
    N3316    N        0.66778    0.29772    0.28191    1.000
    N3317    N        0.72977    0.30055    0.31080    1.000
    Si3318   Si       0.58619    0.27420    0.39415    1.000
    N3319    N        0.59449    0.28966    0.43414    1.000
    Si3320   Si       0.60815    0.25628    0.46002    1.000
    N3321    N        0.54829    0.24783    0.39820    1.000
    N3322    N        0.61001    0.24546    0.37077    1.000
    Si3323   Si       0.72300    0.27531    0.42425    1.000
    Si3324   Si       0.67982    0.26288    0.48608    1.000
    N3325    N        0.72810    0.26095    0.38220    1.000
    N3326    N        0.69665    0.25263    0.44820    1.000
    N3327    N        0.51244    0.27974    0.58086    1.000
    N3328    N        0.50892    0.28023    0.51250    1.000
    Si3329   Si       0.52773    0.24590    0.60480    1.000
    Si3330   Si       0.62024    0.26977    0.53636    1.000
    N3331    N        0.64696    0.26351    0.57090    1.000
    Si3332   Si       0.68359    0.26693    0.59665    1.000
    N3333    N        0.71659    0.28672    0.57664    1.000
    Si3334   Si       0.72334    0.27775    0.53121    1.000
    N3335    N        0.70342    0.29799    0.49550    1.000
    N3336    N        0.63523    0.26423    0.49437    1.000
    Si3337   Si       0.53155    0.29212    0.71368    1.000
    N3338    N        0.49758    0.27469    0.69184    1.000
    N3339    N        0.55828    0.25858    0.63368    1.000
    N3340    N        0.60964    0.25068    0.73732    1.000
    Si3341   Si       0.56431    0.29981    0.64546    1.000
    N3342    N        0.53890    0.26838    0.74723    1.000
    N3343    N        0.71437    0.24669    0.74128    1.000
    N3344    N        0.67412    0.29076    0.63381    1.000
    N3345    N        0.61914    0.24577    0.67048    1.000
    Si3346   Si       0.63428    0.28570    0.65771    1.000
    Si3347   Si       0.70645    0.28961    0.66257    1.000
    Si3348   Si       0.70430    0.28930    0.74300    1.000
    N3349    N        0.71230    0.24757    0.67116    1.000
    Si3350   Si       0.51831    0.27909    0.78417    1.000
    Si3351   Si       0.59811    0.26919    0.84363    1.000
    N3352    N        0.61003    0.28507    0.80605    1.000
    N3353    N        0.54459    0.30374    0.81095    1.000
    Si3354   Si       0.73225    0.29266    0.81155    1.000
    Si3355   Si       0.62133    0.28186    0.76311    1.000
    N3356    N        0.72621    0.25183    0.81330    1.000
    N3357    N        0.66141    0.29728    0.75658    1.000
    N3358    N        0.62323    0.24662    0.87207    1.000
    Si3359   Si       0.55843    0.26546    0.98574    1.000
    N3360    N        0.56780    0.30266    0.96303    1.000
    N3361    N        0.69051    0.25142    0.91625    1.000
    N3362    N        0.63398    0.28326    0.93388    1.000
    Si3363   Si       0.61953    0.24582    0.91422    1.000
    Si3364   Si       0.67189    0.29081    0.91314    1.000
    Si3365   Si       0.59031    0.32303    0.09714    1.000
    Si3366   Si       0.54435    0.32004    0.03908    1.000
    N3367    N        0.54189    0.35032    0.00783    1.000
    N3368    N        0.58491    0.31784    0.05471    1.000
    N3369    N        0.63448    0.31376    0.10485    1.000
    Si3370   Si       0.65912    0.33984    0.01020    1.000
    N3371    N        0.66577    0.34580    0.05119    1.000
    Si3372   Si       0.66506    0.30946    0.07283    1.000
    N3373    N        0.57812    0.33331    0.20756    1.000
    Si3374   Si       0.53820    0.34452    0.22003    1.000
    N3375    N        0.50649    0.32553    0.19905    1.000
    N3376    N        0.51546    0.33941    0.13241    1.000
    N3377    N        0.62257    0.36206    0.16395    1.000
    N3378    N        0.68529    0.33224    0.15125    1.000
    Si3379   Si       0.68876    0.34727    0.19163    1.000
    Si3380   Si       0.71534    0.30898    0.13011    1.000
    N3381    N        0.66286    0.34147    0.22504    1.000
    Si3382   Si       0.64632    0.33953    0.13556    1.000
    N3383    N        0.72746    0.32580    0.20430    1.000
    N3384    N        0.52491    0.32604    0.26032    1.000
    N3385    N        0.50306    0.32441    0.32374    1.000
    N3386    N        0.56954    0.35014    0.31406    1.000
    Si3387   Si       0.52935    0.34986    0.29653    1.000
    Si3388   Si       0.57691    0.31070    0.33606    1.000
    Si3389   Si       0.71766    0.34172    0.32234    1.000
    Si3390   Si       0.64690    0.32544    0.30833    1.000
    N3391    N        0.67546    0.34547    0.33218    1.000
    N3392    N        0.63197    0.35848    0.28503    1.000
    N3393    N        0.61769    0.30125    0.33333    1.000
    Si3394   Si       0.58126    0.32171    0.45846    1.000
    N3395    N        0.50089    0.34679    0.38975    1.000
    Si3396   Si       0.53714    0.32795    0.40463    1.000
    N3397    N        0.55847    0.35260    0.43356    1.000
    Si3398   Si       0.51420    0.30540    0.47845    1.000
    N3399    N        0.55371    0.32225    0.49104    1.000
    N3400    N        0.56611    0.31130    0.37658    1.000
    N3401    N        0.51263    0.30575    0.43577    1.000
    Si3402   Si       0.72068    0.35127    0.40056    1.000
    N3403    N        0.72230    0.31879    0.43013    1.000
    N3404    N        0.61530    0.33488    0.48020    1.000
    Si3405   Si       0.71887    0.33148    0.47369    1.000
    N3406    N        0.68999    0.36231    0.46768    1.000
    N3407    N        0.51511    0.34471    0.54499    1.000
    Si3408   Si       0.60991    0.32302    0.59367    1.000
    Si3409   Si       0.60830    0.34023    0.52286    1.000
    N3410    N        0.60512    0.30972    0.55091    1.000
    Si3411   Si       0.49629    0.30239    0.54713    1.000
    Si3412   Si       0.54450    0.35656    0.51558    1.000
    N3413    N        0.64979    0.34429    0.59385    1.000
    N3414    N        0.71510    0.34434    0.61118    1.000
    N3415    N        0.64836    0.35877    0.52542    1.000
    Si3416   Si       0.59545    0.32724    0.70992    1.000
    N3417    N        0.53422    0.32950    0.64081    1.000
    Si3418   Si       0.50426    0.33860    0.67007    1.000
    N3419    N        0.51295    0.33236    0.71418    1.000
    N3420    N        0.60575    0.30236    0.63138    1.000
    N3421    N        0.56727    0.30024    0.69078    1.000
    N3422    N        0.63262    0.31370    0.68986    1.000
    Si3423   Si       0.66885    0.33467    0.70254    1.000
    Si3424   Si       0.67631    0.33471    0.62599    1.000
    N3425    N        0.67676    0.35935    0.73634    1.000
    N3426    N        0.67917    0.35397    0.66378    1.000
    N3427    N        0.69980    0.30298    0.70238    1.000
    Si3428   Si       0.54387    0.31850    0.85400    1.000
    Si3429   Si       0.58115    0.31707    0.79179    1.000
    Si3430   Si       0.50200    0.34492    0.75409    1.000
    N3431    N        0.59489    0.31389    0.75107    1.000
    N3432    N        0.58444    0.30373    0.86477    1.000
    N3433    N        0.54717    0.36134    0.84951    1.000
    N3434    N        0.59258    0.35847    0.79575    1.000
    N3435    N        0.71785    0.31461    0.77733    1.000
    N3436    N        0.66149    0.34628    0.81222    1.000
    Si3437   Si       0.67597    0.33542    0.77246    1.000
    Si3438   Si       0.67998    0.33294    0.84757    1.000
    N3439    N        0.72199    0.31801    0.84625    1.000
    Si3440   Si       0.50428    0.33990    0.91557    1.000
    Si3441   Si       0.53340    0.32894    0.97122    1.000
    N3442    N        0.51222    0.31246    0.88375    1.000
    N3443    N        0.49301    0.32052    0.95283    1.000
    N3444    N        0.60360    0.34110    0.92147    1.000
    Si3445   Si       0.60794    0.31274    0.95381    1.000
    N3446    N        0.53917    0.35906    0.93362    1.000
    N3447    N        0.69136    0.31264    0.99469    1.000
    Si3448   Si       0.72036    0.32565    0.96377    1.000
    Si3449   Si       0.61537    0.32679    0.88233    1.000
    N3450    N        0.65506    0.31214    0.87690    1.000
    Si3451   Si       0.72332    0.33514    0.89044    1.000
    N3452    N        0.70483    0.31618    0.92348    1.000
    N3453    N        0.62302    0.32211    0.99383    1.000
    N3454    N        0.51018    0.39792    0.04706    1.000
    N3455    N        0.58336    0.40349    0.02843    1.000
    Si3456   Si       0.54321    0.39303    0.01608    1.000
    N3457    N        0.51479    0.40940    0.11907    1.000
    N3458    N        0.57825    0.36148    0.11074    1.000
    N3459    N        0.64921    0.37671    0.11036    1.000
    Si3460   Si       0.66488    0.38518    0.07045    1.000
    N3461    N        0.64396    0.41120    0.04390    1.000
    N3462    N        0.70088    0.40904    0.06832    1.000
    Si3463   Si       0.62618    0.40533    0.99731    1.000
    Si3464   Si       0.59481    0.37098    0.19460    1.000
    Si3465   Si       0.54203    0.37490    0.13078    1.000
    N3466    N        0.56167    0.38919    0.16714    1.000
    N3467    N        0.53167    0.38659    0.22421    1.000
    Si3468   Si       0.54006    0.41718    0.19347    1.000
    Si3469   Si       0.61312    0.39573    0.13237    1.000
    N3470    N        0.69641    0.38836    0.18609    1.000
    N3471    N        0.61670    0.39271    0.22552    1.000
    Si3472   Si       0.73329    0.40418    0.16140    1.000
    Si3473   Si       0.66935    0.42084    0.17515    1.000
    N3474    N        0.51438    0.39041    0.29302    1.000
    N3475    N        0.58815    0.41090    0.28339    1.000
    Si3476   Si       0.60063    0.37871    0.31011    1.000
    Si3477   Si       0.50288    0.40378    0.25232    1.000
    Si3478   Si       0.50752    0.42017    0.32522    1.000
    N3479    N        0.62382    0.39531    0.34741    1.000
    Si3480   Si       0.66631    0.38133    0.35538    1.000
    Si3481   Si       0.70857    0.40977    0.29353    1.000
    N3482    N        0.67741    0.40869    0.26240    1.000
    N3483    N        0.73074    0.37244    0.29490    1.000
    N3484    N        0.69239    0.41209    0.33550    1.000
    Si3485   Si       0.64933    0.37687    0.24880    1.000
    Si3486   Si       0.54696    0.39214    0.45054    1.000
    Si3487   Si       0.49606    0.39191    0.39821    1.000
    N3488    N        0.53211    0.41094    0.41191    1.000
    N3489    N        0.52351    0.38263    0.48609    1.000
    Si3490   Si       0.64928    0.36120    0.48158    1.000
    N3491    N        0.63981    0.39787    0.45875    1.000
    N3492    N        0.67985    0.37220    0.39618    1.000
    Si3493   Si       0.67868    0.38894    0.43684    1.000
    N3494    N        0.52715    0.38921    0.60054    1.000
    N3495    N        0.58288    0.37404    0.52972    1.000
    Si3496   Si       0.49820    0.37789    0.57002    1.000
    Si3497   Si       0.60202    0.41083    0.54331    1.000
    N3498    N        0.58671    0.35926    0.60658    1.000
    Si3499   Si       0.61150    0.39391    0.61348    1.000
    Si3500   Si       0.71735    0.38632    0.60425    1.000
    N3501    N        0.69979    0.39158    0.56463    1.000
    N3502    N        0.63294    0.40545    0.57513    1.000
    Si3503   Si       0.66094    0.37303    0.56380    1.000
    N3504    N        0.72360    0.41638    0.50431    1.000
    Si3505   Si       0.54967    0.36691    0.62768    1.000
    Si3506   Si       0.59107    0.40025    0.68427    1.000
    N3507    N        0.55319    0.39317    0.66384    1.000
    N3508    N        0.58893    0.37062    0.71486    1.000
    Si3509   Si       0.51862    0.40964    0.68352    1.000
    N3510    N        0.52590    0.41475    0.72664    1.000
    N3511    N        0.68848    0.41701    0.69487    1.000
    N3512    N        0.62545    0.39651    0.65642    1.000
    N3513    N        0.68428    0.41091    0.62245    1.000
    Si3514   Si       0.66976    0.39701    0.66087    1.000
    Si3515   Si       0.69422    0.39833    0.73463    1.000
    Si3516   Si       0.54242    0.38499    0.81182    1.000
    N3517    N        0.50628    0.41008    0.80516    1.000
    Si3518   Si       0.49651    0.41039    0.76161    1.000
    Si3519   Si       0.57656    0.37418    0.75688    1.000
    Si3520   Si       0.57827    0.38863    0.86460    1.000
    N3521    N        0.56924    0.41756    0.83186    1.000
    N3522    N        0.53504    0.36350    0.77237    1.000
    N3523    N        0.58248    0.41802    0.76408    1.000
    N3524    N        0.61470    0.36600    0.86044    1.000
    N3525    N        0.73644    0.40209    0.74541    1.000
    Si3526   Si       0.62829    0.37026    0.81902    1.000
    Si3527   Si       0.71496    0.39289    0.84569    1.000
    N3528    N        0.70120    0.40351    0.80367    1.000
    N3529    N        0.63477    0.41102    0.81090    1.000
    N3530    N        0.52660    0.41483    0.98249    1.000
    N3531    N        0.59890    0.39227    0.96605    1.000
    N3532    N        0.57995    0.40974    0.90285    1.000
    Si3533   Si       0.57888    0.37496    0.93106    1.000
    Si3534   Si       0.69806    0.39714    0.97505    1.000
    N3535    N        0.72843    0.36733    0.96518    1.000
    N3536    N        0.69528    0.36508    0.87353    1.000
    N3537    N        0.66191    0.37944    0.98920    1.000
    N3538    N        0.54932    0.44852    0.07482    1.000
    Si3539   Si       0.57121    0.45709    0.11024    1.000
    N3540    N        0.60569    0.46701    0.04216    1.000
    Si3541   Si       0.51246    0.42568    0.07989    1.000
    Si3542   Si       0.60283    0.42484    0.05950    1.000
    N3543    N        0.60066    0.42425    0.10205    1.000
    N3544    N        0.54848    0.47455    0.00484    1.000
    Si3545   Si       0.68356    0.43230    0.03559    1.000
    N3546    N        0.67596    0.47443    0.03474    1.000
    N3547    N        0.71391    0.42268    0.00653    1.000
    Si3548   Si       0.63643    0.47596    0.01496    1.000
    N3549    N        0.56423    0.46160    0.15232    1.000
    N3550    N        0.57385    0.44028    0.21164    1.000
    N3551    N        0.50212    0.43528    0.18145    1.000
    Si3552   Si       0.59724    0.45500    0.17947    1.000
    N3553    N        0.69539    0.42753    0.14009    1.000
    N3554    N        0.62727    0.42676    0.16347    1.000
    Si3555   Si       0.72098    0.46063    0.12940    1.000
    N3556    N        0.68277    0.45057    0.20397    1.000
    Si3557   Si       0.71411    0.47547    0.18532    1.000
    Si3558   Si       0.57643    0.43774    0.31252    1.000
    N3559    N        0.49872    0.45949    0.31277    1.000
    Si3560   Si       0.52215    0.47216    0.27663    1.000
    N3561    N        0.56238    0.46981    0.28880    1.000
    N3562    N        0.54757    0.42531    0.34319    1.000
    N3563    N        0.61104    0.46053    0.32608    1.000
    Si3564   Si       0.60001    0.42715    0.24441    1.000
    N3565    N        0.50215    0.44614    0.24827    1.000
    N3566    N        0.73554    0.44269    0.28621    1.000
    Si3567   Si       0.62417    0.43775    0.36179    1.000
    Si3568   Si       0.69495    0.45012    0.36026    1.000
    Si3569   Si       0.67178    0.44817    0.24461    1.000
    N3570    N        0.62894    0.45899    0.25034    1.000
    Si3571   Si       0.71897    0.48018    0.29862    1.000
    Si3572   Si       0.59726    0.47767    0.41553    1.000
    N3573    N        0.52360    0.47459    0.38190    1.000
    N3574    N        0.57440    0.42499    0.46287    1.000
    Si3575   Si       0.54781    0.43803    0.38360    1.000
    N3576    N        0.59016    0.44576    0.38925    1.000
    Si3577   Si       0.55329    0.46231    0.47009    1.000
    N3578    N        0.51570    0.44945    0.48605    1.000
    N3579    N        0.65905    0.45237    0.38274    1.000
    N3580    N        0.67810    0.46694    0.49182    1.000
    N3581    N        0.73120    0.45361    0.38298    1.000
    Si3582   Si       0.61707    0.43227    0.47289    1.000
    N3583    N        0.62717    0.46255    0.44430    1.000
    Si3584   Si       0.71238    0.44712    0.47671    1.000
    Si3585   Si       0.66597    0.46138    0.42779    1.000
    N3586    N        0.69602    0.42998    0.43768    1.000
    Si3587   Si       0.73972    0.43153    0.42140    1.000
    N3588    N        0.56046    0.43395    0.54715    1.000
    N3589    N        0.52728    0.46211    0.60816    1.000
    Si3590   Si       0.54725    0.42671    0.58971    1.000
    N3591    N        0.58465    0.42826    0.60953    1.000
    Si3592   Si       0.51890    0.44095    0.52881    1.000
    Si3593   Si       0.59947    0.47018    0.61428    1.000
    N3594    N        0.49134    0.42089    0.55720    1.000
    Si3595   Si       0.57055    0.47750    0.54009    1.000
    N3596    N        0.62058    0.43930    0.51595    1.000
    Si3597   Si       0.66303    0.43332    0.59176    1.000
    N3598    N        0.67722    0.45087    0.55502    1.000
    Si3599   Si       0.65132    0.46916    0.52478    1.000
    N3600    N        0.64276    0.46420    0.61487    1.000
    Si3601   Si       0.71375    0.43038    0.54407    1.000
    Si3602   Si       0.49927    0.46919    0.63974    1.000
    N3603    N        0.50583    0.45211    0.67931    1.000
    N3604    N        0.58624    0.44091    0.69942    1.000
    Si3605   Si       0.56057    0.44104    0.73342    1.000
    Si3606   Si       0.49943    0.46742    0.72266    1.000
    Si3607   Si       0.67051    0.45300    0.71606    1.000
    Si3608   Si       0.71829    0.44823    0.68131    1.000
    N3609    N        0.64725    0.46958    0.68499    1.000
    N3610    N        0.70885    0.47394    0.71708    1.000
    N3611    N        0.71034    0.47636    0.65102    1.000
    Si3612   Si       0.56322    0.46068    0.84164    1.000
    Si3613   Si       0.59824    0.42964    0.80192    1.000
    N3614    N        0.52379    0.46943    0.82989    1.000
    N3615    N        0.59157    0.47139    0.81022    1.000
    Si3616   Si       0.49430    0.43787    0.83536    1.000
    Si3617   Si       0.66864    0.43156    0.79659    1.000
    N3618    N        0.67069    0.46982    0.81727    1.000
    N3619    N        0.66837    0.43224    0.75341    1.000
    N3620    N        0.72102    0.42946    0.86449    1.000
    N3621    N        0.50373    0.45793    0.94447    1.000
    Si3622   Si       0.59284    0.45113    0.91083    1.000
    Si3623   Si       0.53977    0.45430    0.96783    1.000
    N3624    N        0.57632    0.46890    0.94709    1.000
    N3625    N        0.57774    0.47610    0.87916    1.000
    N3626    N        0.72548    0.47418    0.90695    1.000
    Si3627   Si       0.71963    0.43088    0.90756    1.000
    N3628    N        0.63616    0.45271    0.91561    1.000
    Si3629   Si       0.66289    0.45669    0.94924    1.000
    N3630    N        0.64344    0.44390    0.98513    1.000
    N3631    N        0.69221    0.42340    0.94046    1.000
    N3632    N        0.58224    0.49846    0.09808    1.000
    Si3633   Si       0.53471    0.51446    0.00760    1.000
    N3634    N        0.54653    0.51896    0.04840    1.000
    N3635    N        0.49074    0.50659    0.00712    1.000
    Si3636   Si       0.56495    0.47988    0.04697    1.000
    Si3637   Si       0.61930    0.52160    0.09698    1.000
    N3638    N        0.65975    0.51437    0.08450    1.000
    Si3639   Si       0.68896    0.51386    0.05115    1.000
    N3640    N        0.72406    0.52112    0.07496    1.000
    N3641    N        0.68254    0.53929    0.01613    1.000
    N3642    N        0.50017    0.49502    0.12996    1.000
    Si3643   Si       0.53289    0.49205    0.15736    1.000
    N3644    N        0.51307    0.49858    0.19633    1.000
    N3645    N        0.60897    0.49267    0.19517    1.000
    Si3646   Si       0.60281    0.52817    0.17243    1.000
    N3647    N        0.56088    0.52900    0.15749    1.000
    Si3648   Si       0.69786    0.51898    0.23866    1.000
    Si3649   Si       0.67158    0.52240    0.12938    1.000
    Si3650   Si       0.62313    0.50145    0.23719    1.000
    N3651    N        0.69944    0.49385    0.14716    1.000
    N3652    N        0.72500    0.51036    0.20660    1.000
    N3653    N        0.63048    0.52554    0.14001    1.000
    N3654    N        0.65600    0.53078    0.23170    1.000
    N3655    N        0.51941    0.51538    0.26893    1.000
    N3656    N        0.57215    0.51183    0.33957    1.000
    N3657    N        0.59511    0.51910    0.26508    1.000
    Si3658   Si       0.59779    0.49693    0.30540    1.000
    N3659    N        0.50848    0.52782    0.33739    1.000
    Si3660   Si       0.53793    0.51271    0.36591    1.000
    Si3661   Si       0.60314    0.53577    0.35978    1.000
    Si3662   Si       0.67152    0.52052    0.33978    1.000
    N3663    N        0.62945    0.52635    0.32344    1.000
    N3664    N        0.69053    0.48251    0.33202    1.000
    N3665    N        0.69141    0.48288    0.26290    1.000
    N3666    N        0.49148    0.52008    0.42284    1.000
    Si3667   Si       0.53356    0.52091    0.43260    1.000
    N3668    N        0.56063    0.48654    0.43516    1.000
    N3669    N        0.53295    0.53588    0.47251    1.000
    Si3670   Si       0.57243    0.53132    0.49174    1.000
    N3671    N        0.61429    0.51029    0.39383    1.000
    Si3672   Si       0.65240    0.52752    0.40998    1.000
    N3673    N        0.68154    0.50103    0.42775    1.000
    Si3674   Si       0.69303    0.53815    0.45079    1.000
    Si3675   Si       0.52049    0.49541    0.58287    1.000
    N3676    N        0.59008    0.48935    0.57587    1.000
    N3677    N        0.52622    0.48588    0.53949    1.000
    Si3678   Si       0.60946    0.52598    0.55786    1.000
    N3679    N        0.57558    0.48773    0.49866    1.000
    N3680    N        0.73553    0.51840    0.60351    1.000
    N3681    N        0.64127    0.51284    0.53214    1.000
    N3682    N        0.48361    0.50712    0.71416    1.000
    Si3683   Si       0.56700    0.51462    0.74232    1.000
    N3684    N        0.59488    0.49675    0.64771    1.000
    N3685    N        0.60597    0.50466    0.72272    1.000
    N3686    N        0.49145    0.51236    0.64448    1.000
    N3687    N        0.54013    0.47951    0.73821    1.000
    Si3688   Si       0.60559    0.47912    0.68782    1.000
    Si3689   Si       0.70739    0.51154    0.73849    1.000
    N3690    N        0.65615    0.52403    0.64625    1.000
    Si3691   Si       0.66727    0.48091    0.64812    1.000
    Si3692   Si       0.63367    0.53245    0.74139    1.000
    Si3693   Si       0.73853    0.50884    0.64563    1.000
    Si3694   Si       0.59964    0.51391    0.80847    1.000
    N3695    N        0.56784    0.53110    0.78498    1.000
    Si3696   Si       0.49559    0.49775    0.81642    1.000
    N3697    N        0.50859    0.53699    0.82911    1.000
    N3698    N        0.61105    0.52677    0.84888    1.000
    Si3699   Si       0.67184    0.51178    0.80686    1.000
    N3700    N        0.63545    0.51899    0.78276    1.000
    N3701    N        0.70803    0.50954    0.78146    1.000
    N3702    N        0.73727    0.50360    0.84535    1.000
    Si3703   Si       0.58625    0.51975    0.88391    1.000
    Si3704   Si       0.59116    0.50832    0.96275    1.000
    N3705    N        0.50488    0.50409    0.88895    1.000
    N3706    N        0.60769    0.52578    0.92453    1.000
    N3707    N        0.56094    0.53591    0.98084    1.000
    N3708    N        0.68392    0.49516    0.95363    1.000
    Si3709   Si       0.72096    0.50589    0.93541    1.000
    N3710    N        0.62570    0.50906    0.98853    1.000
    Si3711   Si       0.66576    0.52972    0.97818    1.000
    Si3712   Si       0.73511    0.53796    0.87330    1.000
    N3713    N        0.53275    0.56401    0.10451    1.000
    N3714    N        0.59892    0.55697    0.08171    1.000
    N3715    N        0.60332    0.58845    0.01497    1.000
    Si3716   Si       0.59872    0.59435    0.05619    1.000
    Si3717   Si       0.49131    0.57954    0.09719    1.000
    Si3718   Si       0.56005    0.53610    0.08468    1.000
    Si3719   Si       0.71950    0.56275    0.09668    1.000
    Si3720   Si       0.70026    0.57696    0.02165    1.000
    N3721    N        0.70014    0.58383    0.06400    1.000
    N3722    N        0.73629    0.57610    0.99934    1.000
    Si3723   Si       0.53782    0.56392    0.14850    1.000
    N3724    N        0.60932    0.56375    0.19623    1.000
    N3725    N        0.54655    0.55854    0.22517    1.000
    Si3726   Si       0.57147    0.58499    0.20417    1.000
    N3727    N        0.50216    0.56334    0.17141    1.000
    Si3728   Si       0.51067    0.54079    0.20741    1.000
    N3729    N        0.67717    0.59419    0.20715    1.000
    Si3730   Si       0.71606    0.59173    0.22597    1.000
    Si3731   Si       0.64253    0.57161    0.22576    1.000
    N3732    N        0.69112    0.55951    0.12756    1.000
    N3733    N        0.55091    0.57243    0.29043    1.000
    Si3734   Si       0.51953    0.56699    0.31952    1.000
    N3735    N        0.53380    0.59119    0.35404    1.000
    Si3736   Si       0.55744    0.53789    0.26334    1.000
    N3737    N        0.63885    0.58483    0.26707    1.000
    Si3738   Si       0.72768    0.55387    0.29317    1.000
    N3739    N        0.68750    0.54855    0.30961    1.000
    Si3740   Si       0.64642    0.56164    0.30222    1.000
    Si3741   Si       0.67617    0.58570    0.36366    1.000
    N3742    N        0.72273    0.55463    0.25034    1.000
    N3743    N        0.71774    0.59642    0.36742    1.000
    N3744    N        0.66676    0.54555    0.37409    1.000
    N3745    N        0.59762    0.57520    0.37606    1.000
    Si3746   Si       0.55728    0.58304    0.38919    1.000
    N3747    N        0.59258    0.56178    0.46697    1.000
    Si3748   Si       0.51053    0.56902    0.49184    1.000
    N3749    N        0.54685    0.54026    0.39716    1.000
    N3750    N        0.65486    0.55563    0.44323    1.000
    N3751    N        0.72464    0.55720    0.43062    1.000
    Si3752   Si       0.63277    0.57860    0.47154    1.000
    N3753    N        0.70444    0.54043    0.49136    1.000
    Si3754   Si       0.54241    0.55559    0.55590    1.000
    N3755    N        0.50650    0.54956    0.52999    1.000
    N3756    N        0.57716    0.54219    0.53237    1.000
    N3757    N        0.53529    0.53384    0.59170    1.000
    Si3758   Si       0.72981    0.54856    0.57467    1.000
    Si3759   Si       0.66025    0.57032    0.58571    1.000
    N3760    N        0.68920    0.55291    0.55907    1.000
    N3761    N        0.64732    0.57917    0.51142    1.000
    N3762    N        0.62373    0.54845    0.59170    1.000
    Si3763   Si       0.67183    0.54428    0.51969    1.000
    N3764    N        0.68692    0.57549    0.61797    1.000
    Si3765   Si       0.50958    0.54738    0.62496    1.000
    N3766    N        0.52974    0.56848    0.65459    1.000
    N3767    N        0.60072    0.57310    0.66006    1.000
    Si3768   Si       0.56250    0.57043    0.68134    1.000
    N3769    N        0.56005    0.55027    0.71813    1.000
    Si3770   Si       0.54268    0.58625    0.73482    1.000
    N3771    N        0.63103    0.57656    0.74247    1.000
    N3772    N        0.72206    0.54352    0.66600    1.000
    N3773    N        0.66082    0.58897    0.67991    1.000
    Si3774   Si       0.68134    0.55729    0.65610    1.000
    N3775    N        0.72180    0.58961    0.72044    1.000
    Si3776   Si       0.67241    0.58215    0.72326    1.000
    N3777    N        0.67465    0.53773    0.72644    1.000
    Si3778   Si       0.61587    0.53758    0.63505    1.000
    Si3779   Si       0.53343    0.55561    0.79885    1.000
    N3780    N        0.51142    0.56465    0.76066    1.000
    N3781    N        0.54649    0.58767    0.82201    1.000
    Si3782   Si       0.57241    0.58907    0.85607    1.000
    N3783    N        0.61375    0.59469    0.83853    1.000
    Si3784   Si       0.63940    0.55992    0.85275    1.000
    N3785    N        0.67568    0.54908    0.82811    1.000
    Si3786   Si       0.70195    0.58393    0.82171    1.000
    N3787    N        0.71837    0.59232    0.78159    1.000
    N3788    N        0.73387    0.57306    0.84915    1.000
    N3789    N        0.56064    0.55412    0.87815    1.000
    Si3790   Si       0.57367    0.57703    0.98406    1.000
    N3791    N        0.59988    0.59165    0.95204    1.000
    Si3792   Si       0.51788    0.54105    0.87458    1.000
    N3793    N        0.48953    0.57423    0.87758    1.000
    N3794    N        0.65117    0.57020    0.89241    1.000
    N3795    N        0.65850    0.56813    0.95521    1.000
    N3796    N        0.71343    0.54299    0.91096    1.000
    Si3797   Si       0.62300    0.56523    0.92762    1.000
    Si3798   Si       0.68624    0.57755    0.91701    1.000
    Si3799   Si       0.52722    0.63410    0.07189    1.000
    N3800    N        0.56864    0.62263    0.06860    1.000
    Si3801   Si       0.59873    0.64812    0.08667    1.000
    N3802    N        0.49236    0.60868    0.06428    1.000
    N3803    N        0.52203    0.64295    0.11635    1.000
    Si3804   Si       0.67225    0.61831    0.06291    1.000
    N3805    N        0.63059    0.62006    0.07312    1.000
    N3806    N        0.67102    0.61013    0.01317    1.000
    N3807    N        0.59058    0.64698    0.12919    1.000
    N3808    N        0.57219    0.61874    0.23331    1.000
    Si3809   Si       0.55143    0.63710    0.14586    1.000
    N3810    N        0.55980    0.59830    0.16476    1.000
    Si3811   Si       0.68702    0.62750    0.17949    1.000
    N3812    N        0.65870    0.63384    0.14675    1.000
    N3813    N        0.72590    0.62969    0.15823    1.000
    N3814    N        0.59282    0.63306    0.29910    1.000
    N3815    N        0.52495    0.63850    0.27300    1.000
    Si3816   Si       0.51578    0.63076    0.35693    1.000
    Si3817   Si       0.56075    0.61402    0.27489    1.000
    N3818    N        0.60299    0.64873    0.36395    1.000
    Si3819   Si       0.62263    0.60995    0.36277    1.000
    Si3820   Si       0.63510    0.62331    0.29039    1.000
    N3821    N        0.72339    0.62440    0.25170    1.000
    N3822    N        0.65662    0.65294    0.26696    1.000
    N3823    N        0.71498    0.65001    0.31827    1.000
    N3824    N        0.64781    0.59886    0.32832    1.000
    Si3825   Si       0.73785    0.61849    0.33665    1.000
    Si3826   Si       0.70011    0.65658    0.27565    1.000
    N3827    N        0.50445    0.64287    0.39523    1.000
    N3828    N        0.55866    0.61281    0.42325    1.000
    Si3829   Si       0.53774    0.65142    0.42343    1.000
    N3830    N        0.50933    0.65190    0.45674    1.000
    N3831    N        0.54204    0.59999    0.49049    1.000
    Si3832   Si       0.57408    0.59987    0.45919    1.000
    Si3833   Si       0.61515    0.65350    0.48530    1.000
    N3834    N        0.72536    0.65340    0.48631    1.000
    N3835    N        0.68662    0.61676    0.45671    1.000
    Si3836   Si       0.65279    0.62883    0.43364    1.000
    Si3837   Si       0.72942    0.61667    0.46326    1.000
    N3838    N        0.61897    0.61837    0.45785    1.000
    N3839    N        0.65433    0.61206    0.39338    1.000
    Si3840   Si       0.51571    0.61376    0.59090    1.000
    Si3841   Si       0.55408    0.62035    0.52674    1.000
    N3842    N        0.59546    0.63210    0.52128    1.000
    N3843    N        0.54466    0.59865    0.56240    1.000
    N3844    N        0.64765    0.61238    0.57339    1.000
    Si3845   Si       0.63579    0.61703    0.53165    1.000
    N3846    N        0.69568    0.64057    0.61215    1.000
    Si3847   Si       0.65362    0.64413    0.60273    1.000
    Si3848   Si       0.72051    0.60376    0.61890    1.000
    N3849    N        0.65306    0.65278    0.51038    1.000
    N3850    N        0.52836    0.63087    0.62707    1.000
    N3851    N        0.54693    0.61037    0.69652    1.000
    Si3852   Si       0.51653    0.61048    0.66241    1.000
    Si3853   Si       0.56166    0.65255    0.70449    1.000
    N3854    N        0.61275    0.63220    0.70660    1.000
    N3855    N        0.62868    0.64207    0.63810    1.000
    N3856    N        0.67520    0.62844    0.72890    1.000
    N3857    N        0.73269    0.61098    0.66084    1.000
    Si3858   Si       0.70920    0.63073    0.69364    1.000
    Si3859   Si       0.62335    0.60939    0.66974    1.000
    N3860    N        0.73847    0.65018    0.72339    1.000
    Si3861   Si       0.54910    0.62238    0.79614    1.000
    N3862    N        0.50672    0.62369    0.78487    1.000
    N3863    N        0.56749    0.60648    0.76104    1.000
    Si3864   Si       0.60985    0.61345    0.74843    1.000
    N3865    N        0.62284    0.64137    0.78088    1.000
    N3866    N        0.67634    0.61842    0.83493    1.000
    Si3867   Si       0.63580    0.62915    0.82190    1.000
    Si3868   Si       0.71227    0.62766    0.75403    1.000
    Si3869   Si       0.69953    0.63835    0.86748    1.000
    N3870    N        0.73824    0.63937    0.84462    1.000
    N3871    N        0.56394    0.62693    0.87409    1.000
    Si3872   Si       0.51024    0.61709    0.97122    1.000
    Si3873   Si       0.53488    0.64045    0.90291    1.000
    N3874    N        0.51899    0.61066    0.92887    1.000
    N3875    N        0.49706    0.64364    0.87931    1.000
    N3876    N        0.54216    0.60359    0.99389    1.000
    Si3877   Si       0.63385    0.60241    0.98539    1.000
    Si3878   Si       0.71584    0.65033    0.93308    1.000
    N3879    N        0.73261    0.63777    0.97296    1.000
    N3880    N        0.63474    0.64593    0.97875    1.000
    N3881    N        0.70137    0.61629    0.90703    1.000
    Si3882   Si       0.67927    0.64614    0.99029    1.000
    N3883    N        0.52583    0.67521    0.05566    1.000
    Si3884   Si       0.56185    0.69763    0.04610    1.000
    N3885    N        0.59812    0.68745    0.06958    1.000
    N3886    N        0.56268    0.69921    0.00230    1.000
    Si3887   Si       0.49330    0.69705    0.07361    1.000
    Si3888   Si       0.69464    0.69095    0.05642    1.000
    N3889    N        0.70003    0.67395    0.01735    1.000
    Si3890   Si       0.67855    0.66473    0.12001    1.000
    N3891    N        0.72930    0.71487    0.07221    1.000
    Si3892   Si       0.62934    0.71212    0.08820    1.000
    N3893    N        0.65755    0.71386    0.05575    1.000
    N3894    N        0.68895    0.65442    0.08050    1.000
    Si3895   Si       0.73893    0.67384    0.99639    1.000
    N3896    N        0.49995    0.68656    0.22901    1.000
    Si3897   Si       0.51091    0.68375    0.18723    1.000
    N3898    N        0.54791    0.66432    0.17975    1.000
    N3899    N        0.57102    0.68853    0.24066    1.000
    Si3900   Si       0.57499    0.65529    0.21095    1.000
    N3901    N        0.71018    0.68944    0.13449    1.000
    N3902    N        0.61501    0.66122    0.19434    1.000
    Si3903   Si       0.62529    0.65984    0.15326    1.000
    Si3904   Si       0.64547    0.67095    0.22645    1.000
    N3905    N        0.64076    0.68842    0.12387    1.000
    N3906    N        0.68284    0.66184    0.20513    1.000
    Si3907   Si       0.71297    0.69065    0.21548    1.000
    N3908    N        0.64069    0.71392    0.23261    1.000
    Si3909   Si       0.50790    0.69053    0.32120    1.000
    N3910    N        0.60080    0.70091    0.33046    1.000
    Si3911   Si       0.53315    0.67874    0.25830    1.000
    N3912    N        0.53183    0.70832    0.29040    1.000
    N3913    N        0.53767    0.66165    0.33692    1.000
    Si3914   Si       0.57922    0.66170    0.32948    1.000
    N3915    N        0.49290    0.71131    0.35467    1.000
    N3916    N        0.71373    0.69394    0.25820    1.000
    Si3917   Si       0.70792    0.68384    0.34817    1.000
    N3918    N        0.66644    0.68471    0.35653    1.000
    Si3919   Si       0.62503    0.68624    0.36602    1.000
    N3920    N        0.58960    0.68205    0.46432    1.000
    N3921    N        0.54722    0.69321    0.41063    1.000
    Si3922   Si       0.58215    0.70876    0.43180    1.000
    Si3923   Si       0.49839    0.65776    0.49761    1.000
    Si3924   Si       0.68378    0.66382    0.47956    1.000
    N3925    N        0.61782    0.70532    0.40477    1.000
    N3926    N        0.65920    0.67160    0.44493    1.000
    N3927    N        0.72773    0.67905    0.38710    1.000
    Si3928   Si       0.65352    0.71076    0.42833    1.000
    N3929    N        0.69195    0.70912    0.49835    1.000
    Si3930   Si       0.52880    0.68762    0.55694    1.000
    N3931    N        0.54999    0.69192    0.59586    1.000
    N3932    N        0.52883    0.65643    0.52851    1.000
    N3933    N        0.65087    0.68023    0.58054    1.000
    Si3934   Si       0.71223    0.67915    0.59494    1.000
    N3935    N        0.70709    0.67725    0.55231    1.000
    Si3936   Si       0.66646    0.68531    0.53724    1.000
    N3937    N        0.62979    0.71183    0.52455    1.000
    N3938    N        0.70165    0.71460    0.62104    1.000
    N3939    N        0.49526    0.68901    0.63253    1.000
    N3940    N        0.56628    0.67250    0.66347    1.000
    Si3941   Si       0.53555    0.67356    0.63200    1.000
    N3942    N        0.51611    0.66514    0.71284    1.000
    Si3943   Si       0.60869    0.67928    0.65044    1.000
    N3944    N        0.57085    0.67225    0.74341    1.000
    N3945    N        0.61862    0.71409    0.62966    1.000
    Si3946   Si       0.65039    0.65992    0.70762    1.000
    N3947    N        0.68553    0.66432    0.67739    1.000
    N3948    N        0.62658    0.69261    0.68872    1.000
    N3949    N        0.65507    0.69192    0.74059    1.000
    N3950    N        0.73667    0.70386    0.67611    1.000
    Si3951   Si       0.69442    0.70492    0.66359    1.000
    N3952    N        0.50155    0.69296    0.77846    1.000
    Si3953   Si       0.59646    0.67616    0.77847    1.000
    Si3954   Si       0.57901    0.66096    0.85165    1.000
    N3955    N        0.56770    0.65894    0.81127    1.000
    Si3956   Si       0.53043    0.69107    0.74610    1.000
    N3957    N        0.62282    0.66064    0.85043    1.000
    Si3958   Si       0.68724    0.69432    0.76814    1.000
    N3959    N        0.70582    0.66004    0.78292    1.000
    N3960    N        0.56666    0.69813    0.87214    1.000
    N3961    N        0.54872    0.66879    0.93138    1.000
    Si3962   Si       0.57806    0.69749    0.91389    1.000
    Si3963   Si       0.53419    0.68966    0.96871    1.000
    N3964    N        0.50189    0.65997    0.98046    1.000
    N3965    N        0.61946    0.68499    0.91727    1.000
    Si3966   Si       0.64246    0.68702    0.87841    1.000
    N3967    N        0.68625    0.67910    0.87793    1.000
    Si3968   Si       0.64030    0.68317    0.95630    1.000
    N3969    N        0.68319    0.67107    0.95039    1.000
    N3970    N        0.55333    0.73755    0.06141    1.000
    Si3971   Si       0.53423    0.75310    0.09864    1.000
    N3972    N        0.50386    0.72163    0.10694    1.000
    Si3973   Si       0.55291    0.77164    0.03343    1.000
    N3974    N        0.61838    0.74989    0.10529    1.000
    N3975    N        0.69482    0.75195    0.01289    1.000
    Si3976   Si       0.65394    0.73566    0.01887    1.000
    Si3977   Si       0.73334    0.71918    0.11516    1.000
    Si3978   Si       0.48888    0.72947    0.22806    1.000
    Si3979   Si       0.53977    0.75508    0.20306    1.000
    Si3980   Si       0.49733    0.74168    0.14539    1.000
    N3981    N        0.53661    0.76383    0.14223    1.000
    N3982    N        0.50773    0.72954    0.18621    1.000
    N3983    N        0.58290    0.74835    0.20982    1.000
    Si3984   Si       0.59803    0.72226    0.24068    1.000
    N3985    N        0.52223    0.75351    0.24471    1.000
    Si3986   Si       0.72505    0.75880    0.17441    1.000
    Si3987   Si       0.67080    0.74565    0.22689    1.000
    N3988    N        0.72819    0.76125    0.13049    1.000
    N3989    N        0.69976    0.72984    0.19697    1.000
    N3990    N        0.58965    0.74618    0.27677    1.000
    Si3991   Si       0.54660    0.74653    0.28013    1.000
    Si3992   Si       0.60720    0.74123    0.31657    1.000
    N3993    N        0.59399    0.77118    0.34577    1.000
    N3994    N        0.64880    0.75245    0.31497    1.000
    N3995    N        0.68917    0.75608    0.26378    1.000
    Si3996   Si       0.71752    0.73030    0.28400    1.000
    N3997    N        0.72363    0.71665    0.32579    1.000
    N3998    N        0.57861    0.75212    0.43358    1.000
    N3999    N        0.52070    0.74613    0.47059    1.000
    N4000    N        0.51321    0.75542    0.40404    1.000
    Si4001   Si       0.53872    0.76915    0.43770    1.000
    Si4002   Si       0.51188    0.71410    0.39544    1.000
    Si4003   Si       0.68342    0.77155    0.40916    1.000
    N4004    N        0.64275    0.74082    0.45732    1.000
    Si4005   Si       0.61732    0.77208    0.44038    1.000
    Si4006   Si       0.73102    0.71364    0.41405    1.000
    Si4007   Si       0.72863    0.73207    0.49497    1.000
    N4008    N        0.69015    0.72970    0.41189    1.000
    Si4009   Si       0.65571    0.73507    0.49791    1.000
    N4010    N        0.59787    0.73749    0.57392    1.000
    Si4011   Si       0.59027    0.72903    0.53314    1.000
    Si4012   Si       0.53635    0.75366    0.51030    1.000
    Si4013   Si       0.56359    0.73401    0.60142    1.000
    N4014    N        0.53754    0.76534    0.58990    1.000
    N4015    N        0.57856    0.76784    0.51362    1.000
    N4016    N        0.54881    0.71533    0.53017    1.000
    N4017    N        0.73244    0.76884    0.58325    1.000
    N4018    N        0.66252    0.75551    0.58105    1.000
    Si4019   Si       0.69802    0.75541    0.60679    1.000
    Si4020   Si       0.63556    0.72046    0.59044    1.000
    N4021    N        0.66488    0.77182    0.51518    1.000
    N4022    N        0.73052    0.77784    0.50784    1.000
    Si4023   Si       0.57439    0.77398    0.72318    1.000
    Si4024   Si       0.51043    0.75676    0.72249    1.000
    N4025    N        0.60177    0.74781    0.70445    1.000
    N4026    N        0.50668    0.73801    0.68226    1.000
    Si4027   Si       0.53379    0.76728    0.66300    1.000
    N4028    N        0.56447    0.74519    0.64389    1.000
    Si4029   Si       0.60433    0.74535    0.66011    1.000
    N4030    N        0.53998    0.73506    0.74428    1.000
    N4031    N        0.71590    0.71741    0.74389    1.000
    Si4032   Si       0.64073    0.72725    0.71548    1.000
    N4033    N        0.67184    0.73803    0.68369    1.000
    N4034    N        0.53904    0.73773    0.81403    1.000
    Si4035   Si       0.56498    0.73915    0.77942    1.000
    Si4036   Si       0.55194    0.73689    0.85773    1.000
    Si4037   Si       0.49878    0.72261    0.80925    1.000
    N4038    N        0.58316    0.76613    0.86082    1.000
    N4039    N        0.60294    0.71787    0.78702    1.000
    Si4040   Si       0.62649    0.76402    0.86224    1.000
    Si4041   Si       0.71466    0.73215    0.81509    1.000
    N4042    N        0.71648    0.74816    0.85622    1.000
    Si4043   Si       0.63930    0.74255    0.79126    1.000
    Si4044   Si       0.73010    0.75689    0.75351    1.000
    N4045    N        0.72058    0.76979    0.79523    1.000
    N4046    N        0.67515    0.72004    0.80070    1.000
    N4047    N        0.64694    0.75696    0.74908    1.000
    Si4048   Si       0.53916    0.75857    0.93885    1.000
    N4049    N        0.52897    0.74927    0.89600    1.000
    N4050    N        0.51335    0.72505    0.95793    1.000
    N4051    N        0.57412    0.72875    0.94305    1.000
    Si4052   Si       0.59002    0.72791    0.98521    1.000
    N4053    N        0.57497    0.76717    0.99538    1.000
    Si4054   Si       0.48984    0.74560    0.88269    1.000
    N4055    N        0.63271    0.71672    0.98460    1.000
    N4056    N        0.71826    0.73536    0.91689    1.000
    N4057    N        0.64950    0.72851    0.87604    1.000
    Si4058   Si       0.73246    0.74670    0.99486    1.000
    Si4059   Si       0.69510    0.72226    0.88413    1.000
    N4060    N        0.57540    0.80437    0.05069    1.000
    N4061    N        0.51904    0.79161    0.08764    1.000
    N4062    N        0.51095    0.78060    0.02464    1.000
    Si4063   Si       0.49289    0.80805    0.05313    1.000
    Si4064   Si       0.61909    0.80955    0.05436    1.000
    N4065    N        0.62385    0.82070    0.09596    1.000
    N4066    N        0.70093    0.80066    0.07672    1.000
    Si4067   Si       0.68684    0.78770    0.03829    1.000
    N4068    N        0.69530    0.82149    0.01028    1.000
    N4069    N        0.64369    0.77978    0.03447    1.000
    Si4070   Si       0.73748    0.79587    0.10253    1.000
    Si4071   Si       0.65327    0.82711    0.99710    1.000
    N4072    N        0.59447    0.79293    0.15731    1.000
    N4073    N        0.54058    0.79857    0.19629    1.000
    N4074    N        0.59843    0.81525    0.22627    1.000
    Si4075   Si       0.55182    0.80212    0.15381    1.000
    Si4076   Si       0.55580    0.82921    0.22262    1.000
    Si4077   Si       0.60597    0.78107    0.19691    1.000
    N4078    N        0.64919    0.78175    0.21019    1.000
    N4079    N        0.65694    0.80636    0.14747    1.000
    N4080    N        0.71210    0.79713    0.18875    1.000
    Si4081   Si       0.67161    0.81006    0.18712    1.000
    Si4082   Si       0.64029    0.81782    0.23763    1.000
    Si4083   Si       0.62677    0.78679    0.12589    1.000
    Si4084   Si       0.56180    0.79891    0.33646    1.000
    Si4085   Si       0.51110    0.80595    0.28524    1.000
    N4086    N        0.53860    0.77919    0.30657    1.000
    N4087    N        0.54003    0.80507    0.37255    1.000
    N4088    N        0.58351    0.83141    0.31670    1.000
    N4089    N        0.54027    0.83206    0.26418    1.000
    N4090    N        0.64728    0.81445    0.27814    1.000
    N4091    N        0.70868    0.79964    0.31376    1.000
    N4092    N        0.64829    0.81384    0.34415    1.000
    Si4093   Si       0.69137    0.82159    0.34750    1.000
    Si4094   Si       0.67227    0.78070    0.29447    1.000
    Si4095   Si       0.62093    0.79437    0.37160    1.000
    N4096    N        0.54064    0.81293    0.44045    1.000
    Si4097   Si       0.49964    0.79353    0.38298    1.000
    N4098    N        0.60013    0.82570    0.39262    1.000
    Si4099   Si       0.55798    0.83461    0.40268    1.000
    N4100    N        0.62152    0.80387    0.47136    1.000
    N4101    N        0.69583    0.79271    0.44517    1.000
    N4102    N        0.70236    0.79316    0.37944    1.000
    Si4103   Si       0.69211    0.79304    0.49053    1.000
    N4104    N        0.64030    0.77443    0.40310    1.000
    Si4105   Si       0.60058    0.80353    0.50988    1.000
    N4106    N        0.58006    0.81702    0.60413    1.000
    Si4107   Si       0.53810    0.80567    0.60545    1.000
    N4108    N        0.50211    0.77337    0.52990    1.000
    N4109    N        0.62409    0.81178    0.54580    1.000
    Si4110   Si       0.73126    0.79640    0.55000    1.000
    N4111    N        0.69343    0.81977    0.55734    1.000
    Si4112   Si       0.66014    0.78927    0.55365    1.000
    N4113    N        0.59830    0.81422    0.72156    1.000
    N4114    N        0.53825    0.78658    0.70302    1.000
    N4115    N        0.52557    0.80629    0.64401    1.000
    Si4116   Si       0.51682    0.82292    0.68481    1.000
    Si4117   Si       0.61155    0.82219    0.63476    1.000
    N4118    N        0.72884    0.79300    0.72966    1.000
    Si4119   Si       0.63855    0.79908    0.73700    1.000
    N4120    N        0.69399    0.78710    0.63807    1.000
    N4121    N        0.62412    0.78427    0.65155    1.000
    Si4122   Si       0.66439    0.77775    0.66786    1.000
    N4123    N        0.66547    0.80356    0.70296    1.000
    Si4124   Si       0.70233    0.82267    0.71563    1.000
    Si4125   Si       0.71738    0.82424    0.64124    1.000
    Si4126   Si       0.59011    0.81908    0.76687    1.000
    N4127    N        0.57635    0.77899    0.76884    1.000
    Si4128   Si       0.64646    0.81606    0.81577    1.000
    Si4129   Si       0.73013    0.81009    0.80433    1.000
    N4130    N        0.63119    0.82145    0.77466    1.000
    N4131    N        0.68961    0.82839    0.81491    1.000
    N4132    N        0.63802    0.77490    0.82208    1.000
    N4133    N        0.56740    0.79427    0.93221    1.000
    Si4134   Si       0.58156    0.79839    0.89076    1.000
    Si4135   Si       0.58323    0.80268    0.97111    1.000
    N4136    N        0.50598    0.79445    0.95484    1.000
    N4137    N        0.73458    0.77921    0.96811    1.000
    Si4138   Si       0.73071    0.81531    0.98773    1.000
    N4139    N        0.68322    0.80414    0.92864    1.000
    Si4140   Si       0.64360    0.81877    0.92512    1.000
    N4141    N        0.62671    0.81282    0.96500    1.000
    N4142    N        0.62555    0.79447    0.89343    1.000
    Si4143   Si       0.71687    0.77733    0.92831    1.000
    Si4144   Si       0.55525    0.84292    0.03610    1.000
    N4145    N        0.57294    0.88279    0.03956    1.000
    N4146    N        0.51599    0.84499    0.05509    1.000
    N4147    N        0.50877    0.88466    0.11170    1.000
    Si4148   Si       0.51969    0.83751    0.10205    1.000
    Si4149   Si       0.61226    0.88182    0.01832    1.000
    N4150    N        0.69474    0.87467    0.05520    1.000
    Si4151   Si       0.70118    0.84467    0.08580    1.000
    N4152    N        0.62784    0.84326    0.02888    1.000
    Si4153   Si       0.69714    0.86742    0.01095    1.000
    N4154    N        0.67376    0.86472    0.11695    1.000
    N4155    N        0.74213    0.84169    0.10414    1.000
    Si4156   Si       0.56596    0.87181    0.15717    1.000
    N4157    N        0.56056    0.86577    0.20048    1.000
    N4158    N        0.55080    0.83888    0.13226    1.000
    N4159    N        0.60945    0.86756    0.15570    1.000
    N4160    N        0.66559    0.84564    0.21283    1.000
    N4161    N        0.71947    0.87259    0.18205    1.000
    Si4162   Si       0.68499    0.88435    0.20550    1.000
    Si4163   Si       0.63767    0.84382    0.13059    1.000
    Si4164   Si       0.56235    0.85834    0.29125    1.000
    Si4165   Si       0.49933    0.87480    0.31295    1.000
    N4166    N        0.58609    0.88452    0.26779    1.000
    N4167    N        0.49942    0.83237    0.31826    1.000
    N4168    N        0.53954    0.88827    0.31596    1.000
    N4169    N        0.63870    0.87655    0.31547    1.000
    N4170    N        0.69351    0.86345    0.35445    1.000
    Si4171   Si       0.62725    0.83542    0.31048    1.000
    Si4172   Si       0.49473    0.87229    0.38383    1.000
    N4173    N        0.53940    0.86990    0.38848    1.000
    N4174    N        0.57863    0.86358    0.43751    1.000
    N4175    N        0.51455    0.86554    0.48189    1.000
    Si4176   Si       0.55003    0.84517    0.46745    1.000
    N4177    N        0.68067    0.83679    0.48869    1.000
    N4178    N        0.72487    0.85357    0.42223    1.000
    N4179    N        0.65318    0.85276    0.43486    1.000
    Si4180   Si       0.69205    0.83693    0.44317    1.000
    Si4181   Si       0.63758    0.84457    0.47542    1.000
    Si4182   Si       0.61824    0.86020    0.41154    1.000
    Si4183   Si       0.73036    0.86411    0.37830    1.000
    N4184    N        0.62837    0.87840    0.50185    1.000
    N4185    N        0.59121    0.87582    0.56131    1.000
    Si4186   Si       0.51573    0.87375    0.58311    1.000
    Si4187   Si       0.58839    0.87589    0.51863    1.000
    N4188    N        0.57336    0.83737    0.50378    1.000
    Si4189   Si       0.60703    0.83780    0.57417    1.000
    N4190    N        0.54563    0.88791    0.61048    1.000
    N4191    N        0.51787    0.83092    0.57470    1.000
    Si4192   Si       0.69510    0.85691    0.52497    1.000
    Si4193   Si       0.67627    0.85300    0.58660    1.000
    N4194    N        0.67708    0.88243    0.55470    1.000
    N4195    N        0.63897    0.84073    0.60503    1.000
    N4196    N        0.70659    0.85929    0.61709    1.000
    N4197    N        0.72478    0.88701    0.51305    1.000
    Si4198   Si       0.57040    0.88760    0.64658    1.000
    N4199    N        0.59440    0.85381    0.66134    1.000
    Si4200   Si       0.58573    0.85351    0.70475    1.000
    N4201    N        0.54105    0.85535    0.70079    1.000
    N4202    N        0.59574    0.88587    0.73146    1.000
    N4203    N        0.72135    0.83900    0.68108    1.000
    N4204    N        0.69708    0.85553    0.74302    1.000
    Si4205   Si       0.58859    0.86575    0.84662    1.000
    Si4206   Si       0.52902    0.86018    0.80147    1.000
    N4207    N        0.56343    0.84858    0.77468    1.000
    N4208    N        0.51385    0.84367    0.83850    1.000
    N4209    N        0.56208    0.88718    0.82017    1.000
    Si4210   Si       0.57981    0.88994    0.77595    1.000
    N4211    N        0.62722    0.84686    0.83933    1.000
    Si4212   Si       0.69222    0.87199    0.82433    1.000
    N4213    N        0.73601    0.87174    0.83423    1.000
    N4214    N        0.67861    0.89064    0.86150    1.000
    N4215    N        0.56887    0.83745    0.87390    1.000
    Si4216   Si       0.56103    0.87677    0.97409    1.000
    N4217    N        0.54631    0.86712    0.93579    1.000
    Si4218   Si       0.52765    0.85328    0.87662    1.000
    Si4219   Si       0.51352    0.83638    0.94233    1.000
    N4220    N        0.49493    0.84182    0.90165    1.000
    N4221    N        0.56261    0.83643    0.99279    1.000
    N4222    N        0.60284    0.88742    0.97688    1.000
    N4223    N        0.49310    0.86192    0.97287    1.000
    Si4224   Si       0.64054    0.88778    0.95196    1.000
    N4225    N        0.63992    0.86176    0.91771    1.000
    N4226    N        0.66535    0.86843    0.98285    1.000
    N4227    N        0.73919    0.84145    0.95539    1.000
    Si4228   Si       0.64167    0.87028    0.87414    1.000
    Si4229   Si       0.54535    0.91779    0.03152    1.000
    Si4230   Si       0.51628    0.92315    0.09607    1.000
    N4231    N        0.50844    0.92036    0.05345    1.000
    N4232    N        0.55499    0.94186    0.09555    1.000
    N4233    N        0.63807    0.91440    0.03707    1.000
    N4234    N        0.66978    0.92867    0.10063    1.000
    Si4235   Si       0.67461    0.91414    0.06045    1.000
    N4236    N        0.70414    0.94273    0.04103    1.000
    N4237    N        0.72836    0.89342    0.99926    1.000
    Si4238   Si       0.61760    0.95408    0.02958    1.000
    N4239    N        0.54236    0.92674    0.22522    1.000
    Si4240   Si       0.52275    0.92378    0.18685    1.000
    N4241    N        0.55098    0.91259    0.15499    1.000
    Si4242   Si       0.57566    0.89849    0.22804    1.000
    N4243    N        0.60847    0.91869    0.20680    1.000
    Si4244   Si       0.57159    0.94429    0.13577    1.000
    N4245    N        0.61159    0.93086    0.13531    1.000
    N4246    N        0.49157    0.89430    0.17973    1.000
    Si4247   Si       0.62501    0.90657    0.16975    1.000
    N4248    N        0.66773    0.90650    0.16994    1.000
    N4249    N        0.69367    0.91876    0.22952    1.000
    N4250    N        0.72946    0.90563    0.12686    1.000
    Si4251   Si       0.68627    0.90293    0.13071    1.000
    Si4252   Si       0.73281    0.94987    0.13441    1.000
    Si4253   Si       0.62097    0.95167    0.23560    1.000
    N4254    N        0.59727    0.92952    0.32671    1.000
    Si4255   Si       0.55501    0.92744    0.32815    1.000
    N4256    N        0.55280    0.93428    0.37101    1.000
    Si4257   Si       0.61628    0.90566    0.29439    1.000
    Si4258   Si       0.62072    0.93181    0.36455    1.000
    N4259    N        0.63911    0.93479    0.27242    1.000
    Si4260   Si       0.68108    0.93164    0.26890    1.000
    N4261    N        0.70076    0.90642    0.29856    1.000
    N4262    N        0.66327    0.93255    0.35208    1.000
    N4263    N        0.73410    0.94433    0.34686    1.000
    Si4264   Si       0.67457    0.89678    0.33093    1.000
    Si4265   Si       0.74063    0.92068    0.30903    1.000
    N4266    N        0.48833    0.90175    0.41676    1.000
    Si4267   Si       0.51078    0.93261    0.43662    1.000
    Si4268   Si       0.57137    0.94512    0.47650    1.000
    Si4269   Si       0.56357    0.90365    0.40221    1.000
    N4270    N        0.55426    0.93070    0.43548    1.000
    N4271    N        0.60629    0.89730    0.38995    1.000
    N4272    N        0.50543    0.93622    0.47971    1.000
    N4273    N        0.67632    0.93627    0.49494    1.000
    N4274    N        0.61512    0.94769    0.48244    1.000
    N4275    N        0.73065    0.94381    0.42682    1.000
    Si4276   Si       0.57958    0.90653    0.58830    1.000
    N4277    N        0.51962    0.90366    0.54647    1.000
    Si4278   Si       0.51918    0.90292    0.50341    1.000
    Si4279   Si       0.52803    0.94313    0.56077    1.000
    N4280    N        0.56998    0.94487    0.56997    1.000
    N4281    N        0.56501    0.90775    0.49893    1.000
    Si4282   Si       0.66940    0.92241    0.57144    1.000
    Si4283   Si       0.71303    0.92819    0.51666    1.000
    N4284    N        0.63387    0.93490    0.54687    1.000
    N4285    N        0.67166    0.91547    0.61485    1.000
    Si4286   Si       0.63917    0.91948    0.50765    1.000
    N4287    N        0.70405    0.94289    0.55724    1.000
    N4288    N        0.73817    0.93369    0.62184    1.000
    N4289    N        0.60061    0.91497    0.62395    1.000
    N4290    N        0.55483    0.91265    0.67754    1.000
    Si4291   Si       0.53514    0.89809    0.71599    1.000
    N4292    N        0.49297    0.90407    0.71494    1.000
    N4293    N        0.64572    0.94923    0.66972    1.000
    Si4294   Si       0.62040    0.92120    0.73742    1.000
    N4295    N        0.66075    0.91380    0.72863    1.000
    N4296    N        0.70877    0.90494    0.67519    1.000
    Si4297   Si       0.67771    0.93301    0.69299    1.000
    Si4298   Si       0.70837    0.90047    0.63086    1.000
    Si4299   Si       0.63706    0.93891    0.63002    1.000
    Si4300   Si       0.54070    0.91845    0.84291    1.000
    N4301    N        0.50631    0.93044    0.81862    1.000
    N4302    N        0.54378    0.90858    0.75690    1.000
    Si4303   Si       0.52616    0.94225    0.77976    1.000
    Si4304   Si       0.61002    0.94215    0.85973    1.000
    N4305    N        0.60888    0.89819    0.86714    1.000
    N4306    N        0.61401    0.91859    0.78147    1.000
    N4307    N        0.57038    0.94965    0.84738    1.000
    Si4308   Si       0.68593    0.93401    0.85949    1.000
    Si4309   Si       0.65153    0.93345    0.79614    1.000
    N4310    N        0.72122    0.94171    0.83129    1.000
    N4311    N        0.67878    0.89864    0.79399    1.000
    N4312    N        0.64906    0.94641    0.83904    1.000
    Si4313   Si       0.69222    0.89570    0.75285    1.000
    N4314    N        0.72652    0.92225    0.74864    1.000
    N4315    N        0.49349    0.91967    0.93822    1.000
    N4316    N        0.53681    0.91207    0.98935    1.000
    Si4317   Si       0.49595    0.90448    0.97904    1.000
    Si4318   Si       0.53306    0.90736    0.92099    1.000
    N4319    N        0.55798    0.93777    0.93288    1.000
    N4320    N        0.52972    0.89735    0.87987    1.000
    Si4321   Si       0.72146    0.94892    0.93183    1.000
    N4322    N        0.65346    0.92744    0.94548    1.000
    Si4323   Si       0.56869    0.97511    0.06968    1.000
    N4324    N        0.52690    0.98692    0.05580    1.000
    Si4325   Si       0.49114    0.98559    0.07966    1.000
    N4326    N        0.48816    0.95493    0.11027    1.000
    N4327    N        0.57417    0.95121    0.02201    1.000
    N4328    N        0.61278    0.96522    0.07147    1.000
    Si4329   Si       0.63581    0.95399    0.10711    1.000
    Si4330   Si       0.68883    0.96980    0.00705    1.000
    N4331    N        0.64605    0.97601    0.00557    1.000
    Si4332   Si       0.72974    0.97494    0.06008    1.000
    N4333    N        0.70827    0.00327    0.03649    1.000
    Si4334   Si       0.50793    0.99896    0.20834    1.000
    N4335    N        0.50592    0.96787    0.17878    1.000
    N4336    N        0.57312    0.98408    0.15175    1.000
    N4337    N        0.58470    0.97287    0.24780    1.000
    N4338    N        0.72856    0.97371    0.21813    1.000
    N4339    N        0.65254    0.96874    0.21023    1.000
    Si4340   Si       0.69237    0.95366    0.19991    1.000
    Si4341   Si       0.67534    0.00544    0.14638    1.000
    N4342    N        0.69684    0.96940    0.15800    1.000
    N4343    N        0.63892    0.99428    0.12522    1.000
    Si4344   Si       0.52460    0.99410    0.32570    1.000
    N4345    N        0.53646    0.95584    0.30116    1.000
    Si4346   Si       0.54127    0.95624    0.25766    1.000
    N4347    N        0.56337    0.00015    0.34945    1.000
    N4348    N        0.50089    0.98827    0.36403    1.000
    N4349    N        0.50308    0.97620    0.24553    1.000
    Si4350   Si       0.68377    0.00778    0.28706    1.000
    Si4351   Si       0.69626    0.96603    0.34854    1.000
    N4352    N        0.70291    0.96877    0.28013    1.000
    N4353    N        0.67760    0.00786    0.33140    1.000
    N4354    N        0.48997    0.97145    0.43162    1.000
    Si4355   Si       0.56720    0.97289    0.38438    1.000
    N4356    N        0.55919    0.98591    0.48378    1.000
    N4357    N        0.60841    0.96328    0.39421    1.000
    N4358    N        0.56165    0.00857    0.41184    1.000
    Si4359   Si       0.48499    0.00080    0.40321    1.000
    N4360    N        0.70659    0.99056    0.38289    1.000
    Si4361   Si       0.65328    0.97028    0.47525    1.000
    N4362    N        0.66337    0.97691    0.43475    1.000
    Si4363   Si       0.62785    0.99723    0.41465    1.000
    Si4364   Si       0.70526    0.97849    0.42365    1.000
    N4365    N        0.72202    0.00920    0.44974    1.000
    N4366    N        0.51410    0.97654    0.53681    1.000
    N4367    N        0.50110    0.95597    0.59363    1.000
    Si4368   Si       0.60826    0.96714    0.56719    1.000
    N4369    N        0.60996    0.00488    0.54680    1.000
    Si4370   Si       0.53234    0.00612    0.51075    1.000
    N4371    N        0.70507    0.99569    0.60710    1.000
    N4372    N        0.63552    0.97175    0.59990    1.000
    Si4373   Si       0.72729    0.96105    0.58884    1.000
    Si4374   Si       0.66290    0.00584    0.60002    1.000
    N4375    N        0.66453    0.00347    0.49955    1.000
    N4376    N        0.60867    0.96090    0.72747    1.000
    N4377    N        0.52623    0.97682    0.65329    1.000
    N4378    N        0.58679    0.98162    0.66519    1.000
    N4379    N        0.54145    0.96924    0.71711    1.000
    Si4380   Si       0.55508    0.95646    0.67817    1.000
    Si4381   Si       0.50344    0.98823    0.72704    1.000
    Si4382   Si       0.57366    0.98056    0.74528    1.000
    Si4383   Si       0.48891    0.96659    0.63456    1.000
    Si4384   Si       0.55688    0.00630    0.64185    1.000
    Si4385   Si       0.62202    0.98078    0.68955    1.000
    N4386    N        0.69957    0.96954    0.70859    1.000
    Si4387   Si       0.70861    0.01108    0.70616    1.000
    N4388    N        0.55567    0.97355    0.78455    1.000
    Si4389   Si       0.55533    0.98550    0.82594    1.000
    N4390    N        0.52278    0.00180    0.85040    1.000
    N4391    N        0.49344    0.96527    0.76220    1.000
    N4392    N        0.67233    0.96738    0.77484    1.000
    Si4393   Si       0.72526    0.98378    0.81963    1.000
    Si4394   Si       0.70963    0.96128    0.75241    1.000
    N4395    N        0.73666    0.98487    0.77691    1.000
    Si4396   Si       0.67235    0.01115    0.78132    1.000
    N4397    N        0.59258    0.98004    0.96005    1.000
    Si4398   Si       0.58102    0.97148    0.91835    1.000
    N4399    N        0.52661    0.98748    0.97895    1.000
    Si4400   Si       0.55783    0.95399    0.97750    1.000
    N4401    N        0.61660    0.96455    0.89726    1.000
    N4402    N        0.69259    0.95197    0.89856    1.000
    N4403    N        0.65603    0.00175    0.93942    1.000
    Si4404   Si       0.65596    0.96236    0.92013    1.000
    Si4405   Si       0.62876    0.00010    0.97463    1.000
    N4406    N        0.71806    0.96255    0.97450    1.000
    Si4407   Si       0.84436    0.03967    0.07639    1.000
    N4408    N        0.76961    0.04926    0.10555    1.000
    N4409    N        0.80679    0.02378    0.05748    1.000
    N4410    N        0.75220    0.05880    0.02660    1.000
    Si4411   Si       0.77773    0.05594    0.06216    1.000
    N4412    N        0.87177    0.03134    0.04289    1.000
    N4413    N        0.92859    0.06069    0.09342    1.000
    Si4414   Si       0.88418    0.06504    0.01693    1.000
    Si4415   Si       0.92934    0.03066    0.12092    1.000
    Si4416   Si       0.74556    0.01693    0.12506    1.000
    N4417    N        0.80969    0.03177    0.21990    1.000
    N4418    N        0.82135    0.04967    0.14849    1.000
    Si4419   Si       0.79292    0.04025    0.18019    1.000
    Si4420   Si       0.85654    0.02218    0.14619    1.000
    Si4421   Si       0.92549    0.04859    0.18269    1.000
    N4422    N        0.96055    0.03815    0.15543    1.000
    N4423    N        0.92699    0.01156    0.20594    1.000
    N4424    N        0.89620    0.03818    0.14926    1.000
    N4425    N        0.81651    0.04799    0.35279    1.000
    Si4426   Si       0.80704    0.04929    0.26036    1.000
    N4427    N        0.82852    0.01813    0.28386    1.000
    Si4428   Si       0.78095    0.02491    0.35768    1.000
    Si4429   Si       0.83446    0.02010    0.32567    1.000
    Si4430   Si       0.74865    0.03925    0.29176    1.000
    N4431    N        0.74489    0.03496    0.33476    1.000
    N4432    N        0.94242    0.03276    0.31471    1.000
    N4433    N        0.88988    0.04956    0.26723    1.000
    Si4434   Si       0.97480    0.05341    0.33865    1.000
    Si4435   Si       0.91052    0.05187    0.33824    1.000
    Si4436   Si       0.95340    0.01842    0.27437    1.000
    N4437    N        0.95734    0.05768    0.25750    1.000
    N4438    N        0.87688    0.00932    0.32139    1.000
    N4439    N        0.83264    0.01629    0.42880    1.000
    Si4440   Si       0.75130    0.03759    0.43644    1.000
    N4441    N        0.78341    0.04097    0.46521    1.000
    N4442    N        0.77178    0.02667    0.40055    1.000
    Si4443   Si       0.81781    0.05883    0.43794    1.000
    N4444    N        0.97181    0.02097    0.42472    1.000
    N4445    N        0.91175    0.02770    0.37517    1.000
    N4446    N        0.89756    0.03362    0.44133    1.000
    N4447    N        0.96546    0.04343    0.49047    1.000
    Si4448   Si       0.93089    0.03800    0.41378    1.000
    N4449    N        0.79773    0.04155    0.58541    1.000
    Si4450   Si       0.83438    0.04299    0.56032    1.000
    Si4451   Si       0.77616    0.05021    0.50746    1.000
    N4452    N        0.81541    0.06368    0.52687    1.000
    Si4453   Si       0.94017    0.01432    0.57409    1.000
    N4454    N        0.93573    0.05234    0.55300    1.000
    Si4455   Si       0.97371    0.04750    0.53236    1.000
    N4456    N        0.93862    0.02575    0.61686    1.000
    Si4457   Si       0.85317    0.04224    0.68152    1.000
    Si4458   Si       0.78134    0.02561    0.68452    1.000
    N4459    N        0.76426    0.01479    0.64295    1.000
    N4460    N        0.86051    0.05233    0.72383    1.000
    N4461    N        0.75016    0.01619    0.71433    1.000
    N4462    N        0.82349    0.01207    0.67930    1.000
    Si4463   Si       0.91373    0.00825    0.64560    1.000
    N4464    N        0.93407    0.06399    0.72714    1.000
    N4465    N        0.89629    0.04162    0.66825    1.000
    Si4466   Si       0.96955    0.04691    0.63669    1.000
    Si4467   Si       0.77917    0.04065    0.84794    1.000
    N4468    N        0.82124    0.02871    0.84550    1.000
    Si4469   Si       0.84266    0.02765    0.75656    1.000
    Si4470   Si       0.75785    0.01485    0.75541    1.000
    N4471    N        0.74602    0.05468    0.77708    1.000
    N4472    N        0.85665    0.04461    0.79357    1.000
    N4473    N        0.79993    0.01347    0.75807    1.000
    Si4474   Si       0.86750    0.03007    0.83595    1.000
    N4475    N        0.95407    0.03864    0.78504    1.000
    N4476    N        0.97718    0.02992    0.84359    1.000
    Si4477   Si       0.94550    0.02764    0.74591    1.000
    N4478    N        0.73974    0.05922    0.95083    1.000
    N4479    N        0.80268    0.06497    0.95891    1.000
    N4480    N        0.77991    0.03791    0.89250    1.000
    Si4481   Si       0.76669    0.05149    0.98571    1.000
    N4482    N        0.85779    0.02754    0.97503    1.000
    Si4483   Si       0.77518    0.06518    0.92575    1.000
    Si4484   Si       0.84575    0.06617    0.96049    1.000
    Si4485   Si       0.82602    0.01150    0.88830    1.000
    N4486    N        0.77968    0.01009    0.98609    1.000
    N4487    N        0.98389    0.04580    0.97095    1.000
    Si4488   Si       0.89857    0.01621    0.97219    1.000
    N4489    N        0.92995    0.05625    0.88463    1.000
    Si4490   Si       0.96876    0.03899    0.88437    1.000
    N4491    N        0.91189    0.01187    0.93185    1.000
    N4492    N        0.91689    0.04951    0.99283    1.000
    N4493    N        0.86953    0.01530    0.87969    1.000
    Si4494   Si       0.89459    0.04222    0.90303    1.000
    N4495    N        0.80128    0.09353    0.05209    1.000
    N4496    N        0.85527    0.07962    0.08872    1.000
    N4497    N        0.79136    0.11550    0.11387    1.000
    Si4498   Si       0.82539    0.11488    0.08666    1.000
    N4499    N        0.90237    0.09575    0.04246    1.000
    N4500    N        0.97383    0.11163    0.08298    1.000
    Si4501   Si       0.89806    0.09052    0.08552    1.000
    Si4502   Si       0.96649    0.07006    0.07551    1.000
    N4503    N        0.97132    0.06476    0.03206    1.000
    N4504    N        0.77159    0.07885    0.17198    1.000
    Si4505   Si       0.78989    0.07763    0.13386    1.000
    N4506    N        0.92057    0.08355    0.20668    1.000
    N4507    N        0.96487    0.11926    0.16796    1.000
    Si4508   Si       0.92996    0.12576    0.19161    1.000
    Si4509   Si       0.91892    0.07877    0.24822    1.000
    Si4510   Si       0.84388    0.08194    0.35903    1.000
    N4511    N        0.83455    0.08300    0.26448    1.000
    Si4512   Si       0.75453    0.11388    0.27771    1.000
    N4513    N        0.81606    0.11640    0.36291    1.000
    N4514    N        0.77060    0.07101    0.27609    1.000
    Si4515   Si       0.82704    0.12431    0.25441    1.000
    Si4516   Si       0.87128    0.08444    0.28647    1.000
    N4517    N        0.94376    0.08665    0.34547    1.000
    N4518    N        0.90326    0.11241    0.27151    1.000
    N4519    N        0.87372    0.07773    0.33007    1.000
    Si4520   Si       0.94318    0.12180    0.31807    1.000
    N4521    N        0.96869    0.12486    0.28257    1.000
    N4522    N        0.84644    0.06867    0.46878    1.000
    Si4523   Si       0.82616    0.11631    0.40505    1.000
    Si4524   Si       0.76557    0.10433    0.45695    1.000
    N4525    N        0.79690    0.09797    0.42953    1.000
    N4526    N        0.85216    0.08035    0.40345    1.000
    N4527    N        0.95188    0.11302    0.48720    1.000
    Si4528   Si       0.90879    0.11540    0.49037    1.000
    Si4529   Si       0.96479    0.07895    0.46261    1.000
    N4530    N        0.89323    0.11143    0.45057    1.000
    N4531    N        0.94404    0.07833    0.42258    1.000
    Si4532   Si       0.88028    0.07211    0.44007    1.000
    Si4533   Si       0.95618    0.10541    0.38944    1.000
    N4534    N        0.78002    0.10683    0.56714    1.000
    Si4535   Si       0.79095    0.11772    0.52647    1.000
    Si4536   Si       0.84819    0.08459    0.50905    1.000
    Si4537   Si       0.77110    0.07323    0.59461    1.000
    N4538    N        0.76527    0.09411    0.50102    1.000
    Si4539   Si       0.85855    0.09131    0.61614    1.000
    N4540    N        0.86428    0.06943    0.57822    1.000
    N4541    N        0.83303    0.12547    0.51225    1.000
    N4542    N        0.98105    0.08002    0.61018    1.000
    Si4543   Si       0.90258    0.08236    0.55947    1.000
    N4544    N        0.89098    0.08682    0.51795    1.000
    N4545    N        0.92021    0.12117    0.56983    1.000
    N4546    N        0.84045    0.06999    0.64919    1.000
    N4547    N        0.78314    0.10002    0.62769    1.000
    Si4548   Si       0.76322    0.09777    0.71872    1.000
    Si4549   Si       0.80551    0.09199    0.66307    1.000
    N4550    N        0.82296    0.12211    0.68953    1.000
    N4551    N        0.78439    0.06864    0.69192    1.000
    N4552    N        0.89178    0.10786    0.69937    1.000
    N4553    N        0.90016    0.10197    0.63012    1.000
    N4554    N        0.95529    0.07942    0.66565    1.000
    Si4555   Si       0.97820    0.10807    0.64185    1.000
    Si4556   Si       0.91011    0.08331    0.66815    1.000
    Si4557   Si       0.89331    0.07984    0.73418    1.000
    Si4558   Si       0.96913    0.08712    0.70991    1.000
    Si4559   Si       0.76786    0.08862    0.79151    1.000
    N4560    N        0.78133    0.08061    0.83237    1.000
    N4561    N        0.78616    0.10505    0.75485    1.000
    N4562    N        0.83682    0.11759    0.80576    1.000
    Si4563   Si       0.79031    0.11014    0.86566    1.000
    N4564    N        0.73722    0.12077    0.79772    1.000
    Si4565   Si       0.86617    0.08642    0.80509    1.000
    N4566    N        0.94444    0.09824    0.81798    1.000
    N4567    N        0.89627    0.09688    0.77402    1.000
    Si4568   Si       0.91979    0.09550    0.85603    1.000
    Si4569   Si       0.96932    0.07925    0.78894    1.000
    N4570    N        0.98357    0.10047    0.75428    1.000
    N4571    N        0.88298    0.07107    0.84381    1.000
    N4572    N        0.83249    0.11495    0.87358    1.000
    N4573    N        0.77013    0.11768    0.98652    1.000
    N4574    N        0.77564    0.10321    0.90821    1.000
    Si4575   Si       0.85310    0.11282    0.91202    1.000
    N4576    N        0.85690    0.08943    0.99422    1.000
    N4577    N        0.86832    0.07369    0.92347    1.000
    Si4578   Si       0.95468    0.06756    0.99312    1.000
    N4579    N        0.94074    0.12130    0.88602    1.000
    Si4580   Si       0.98049    0.10956    0.89859    1.000
    N4581    N        0.94487    0.10993    0.99074    1.000
    N4582    N        0.83530    0.15813    0.08233    1.000
    N4583    N        0.82054    0.15226    0.01362    1.000
    N4584    N        0.77077    0.15104    0.05762    1.000
    Si4585   Si       0.76712    0.14966    0.09992    1.000
    Si4586   Si       0.82974    0.18173    0.04348    1.000
    Si4587   Si       0.78826    0.12696    0.02605    1.000
    Si4588   Si       0.84075    0.18479    0.11755    1.000
    Si4589   Si       0.94522    0.14441    0.08511    1.000
    N4590    N        0.93832    0.15632    0.04240    1.000
    Si4591   Si       0.97372    0.18113    0.03096    1.000
    Si4592   Si       0.91664    0.12946    0.01748    1.000
    N4593    N        0.90705    0.12951    0.10285    1.000
    N4594    N        0.94748    0.17438    0.11689    1.000
    Si4595   Si       0.77912    0.17776    0.24170    1.000
    N4596    N        0.74108    0.13987    0.17156    1.000
    N4597    N        0.84620    0.13396    0.21759    1.000
    N4598    N        0.83453    0.15741    0.15077    1.000
    Si4599   Si       0.75463    0.18043    0.16387    1.000
    Si4600   Si       0.85922    0.15888    0.18605    1.000
    N4601    N        0.77399    0.18457    0.12459    1.000
    Si4602   Si       0.90849    0.16264    0.13212    1.000
    Si4603   Si       0.98108    0.14338    0.24624    1.000
    N4604    N        0.94704    0.15413    0.21947    1.000
    N4605    N        0.89839    0.14744    0.16937    1.000
    Si4606   Si       0.78778    0.14483    0.34598    1.000
    N4607    N        0.84886    0.14519    0.28531    1.000
    N4608    N        0.78382    0.13615    0.25473    1.000
    N4609    N        0.80164    0.18101    0.32872    1.000
    Si4610   Si       0.82906    0.18228    0.29694    1.000
    N4611    N        0.75321    0.13377    0.31777    1.000
    N4612    N        0.96750    0.14802    0.34355    1.000
    Si4613   Si       0.89195    0.15263    0.28069    1.000
    Si4614   Si       0.93044    0.16560    0.35905    1.000
    N4615    N        0.91159    0.15210    0.32201    1.000
    N4616    N        0.90777    0.18787    0.25936    1.000
    N4617    N        0.75924    0.15606    0.37727    1.000
    N4618    N        0.75507    0.14537    0.45371    1.000
    Si4619   Si       0.76188    0.16930    0.41762    1.000
    N4620    N        0.84821    0.14988    0.41775    1.000
    Si4621   Si       0.74915    0.17130    0.48901    1.000
    Si4622   Si       0.83857    0.18885    0.43585    1.000
    N4623    N        0.90568    0.17974    0.43584    1.000
    Si4624   Si       0.97778    0.14701    0.49305    1.000
    N4625    N        0.92394    0.13545    0.38928    1.000
    Si4626   Si       0.89305    0.14134    0.41938    1.000
    N4627    N        0.95727    0.18218    0.48007    1.000
    Si4628   Si       0.91349    0.18560    0.47765    1.000
    N4629    N        0.77452    0.15657    0.52210    1.000
    N4630    N        0.78625    0.17058    0.58879    1.000
    Si4631   Si       0.85705    0.16342    0.51302    1.000
    Si4632   Si       0.79779    0.13135    0.60058    1.000
    N4633    N        0.83989    0.13144    0.61185    1.000
    N4634    N        0.88926    0.17084    0.61338    1.000
    N4635    N        0.90288    0.15416    0.50817    1.000
    Si4636   Si       0.93262    0.15295    0.54120    1.000
    N4637    N        0.97675    0.15299    0.53644    1.000
    Si4638   Si       0.91724    0.13719    0.61113    1.000
    Si4639   Si       0.84755    0.16995    0.63177    1.000
    N4640    N        0.80596    0.17259    0.64903    1.000
    Si4641   Si       0.79629    0.15754    0.68900    1.000
    N4642    N        0.75984    0.13423    0.69258    1.000
    N4643    N        0.84760    0.15092    0.74400    1.000
    Si4644   Si       0.85934    0.13782    0.70407    1.000
    Si4645   Si       0.95975    0.16532    0.67349    1.000
    N4646    N        0.86590    0.16807    0.67252    1.000
    N4647    N        0.96279    0.13399    0.70297    1.000
    N4648    N        0.95353    0.14297    0.63491    1.000
    Si4649   Si       0.97335    0.14393    0.74471    1.000
    N4650    N        0.79271    0.16195    0.79434    1.000
    Si4651   Si       0.75600    0.15282    0.81726    1.000
    N4652    N        0.76348    0.14381    0.85858    1.000
    Si4653   Si       0.85211    0.13973    0.84120    1.000
    Si4654   Si       0.81755    0.13365    0.77195    1.000
    N4655    N        0.84330    0.18024    0.84737    1.000
    N4656    N        0.94767    0.15410    0.77666    1.000
    N4657    N        0.89467    0.13223    0.83275    1.000
    Si4658   Si       0.91955    0.12687    0.79540    1.000
    N4659    N        0.76072    0.16252    0.93062    1.000
    Si4660   Si       0.84749    0.13396    0.98465    1.000
    N4661    N        0.82788    0.12813    0.94683    1.000
    Si4662   Si       0.73966    0.15869    0.89231    1.000
    Si4663   Si       0.78324    0.12905    0.94666    1.000
    N4664    N        0.74938    0.18026    0.99709    1.000
    N4665    N        0.87722    0.14778    0.90987    1.000
    Si4666   Si       0.91935    0.15431    0.90416    1.000
    Si4667   Si       0.96752    0.13761    0.96713    1.000
    N4668    N        0.93687    0.16009    0.94378    1.000
    N4669    N        0.88800    0.14945    0.99198    1.000
    Si4670   Si       0.90568    0.18078    0.96762    1.000
    N4671    N        0.79532    0.21211    0.04214    1.000
    Si4672   Si       0.76004    0.18858    0.03734    1.000
    N4673    N        0.82702    0.22677    0.11462    1.000
    N4674    N        0.86269    0.20657    0.03319    1.000
    Si4675   Si       0.78245    0.22773    0.11930    1.000
    Si4676   Si       0.89835    0.23013    0.02094    1.000
    N4677    N        0.97804    0.23795    0.09559    1.000
    N4678    N        0.98512    0.22247    0.02826    1.000
    Si4679   Si       0.98382    0.19702    0.10265    1.000
    Si4680   Si       0.84217    0.22163    0.23282    1.000
    Si4681   Si       0.77893    0.23490    0.19738    1.000
    N4682    N        0.77509    0.19239    0.20002    1.000
    N4683    N        0.86085    0.20121    0.19871    1.000
    N4684    N        0.88359    0.19721    0.12935    1.000
    N4685    N        0.92655    0.21706    0.18840    1.000
    Si4686   Si       0.88540    0.21869    0.16940    1.000
    N4687    N        0.96054    0.23206    0.23554    1.000
    Si4688   Si       0.93264    0.19657    0.22486    1.000
    Si4689   Si       0.77410    0.21301    0.34137    1.000
    N4690    N        0.81634    0.19537    0.25652    1.000
    N4691    N        0.74315    0.19486    0.26230    1.000
    N4692    N        0.86376    0.20345    0.31105    1.000
    N4693    N        0.77159    0.24265    0.31074    1.000
    Si4694   Si       0.88528    0.22292    0.34235    1.000
    Si4695   Si       0.89196    0.22031    0.28191    1.000
    N4696    N        0.91515    0.23785    0.31187    1.000
    N4697    N        0.96689    0.24323    0.35628    1.000
    N4698    N        0.79472    0.23333    0.37327    1.000
    N4699    N        0.79614    0.19138    0.43190    1.000
    Si4700   Si       0.77178    0.22321    0.44582    1.000
    N4701    N        0.75830    0.21364    0.48606    1.000
    N4702    N        0.85631    0.21898    0.41002    1.000
    Si4703   Si       0.85662    0.23652    0.48542    1.000
    N4704    N        0.85235    0.19059    0.47688    1.000
    N4705    N        0.81229    0.24346    0.47348    1.000
    N4706    N        0.98744    0.21218    0.42060    1.000
    N4707    N        0.91064    0.20181    0.37145    1.000
    Si4708   Si       0.89944    0.21333    0.41114    1.000
    Si4709   Si       0.96204    0.24341    0.39971    1.000
    Si4710   Si       0.98002    0.21499    0.46327    1.000
    N4711    N        0.90256    0.22800    0.48709    1.000
    N4712    N        0.79409    0.22031    0.54502    1.000
    Si4713   Si       0.83518    0.23077    0.56197    1.000
    N4714    N        0.83851    0.20879    0.60734    1.000
    N4715    N        0.85643    0.18993    0.54689    1.000
    Si4716   Si       0.78476    0.23968    0.50761    1.000
    Si4717   Si       0.76825    0.18620    0.55341    1.000
    Si4718   Si       0.95767    0.21108    0.57979    1.000
    Si4719   Si       0.88655    0.19714    0.57982    1.000
    N4720    N        0.94762    0.23122    0.61816    1.000
    N4721    N        0.97426    0.24201    0.55316    1.000
    N4722    N        0.88955    0.24197    0.57648    1.000
    N4723    N        0.92730    0.18568    0.56695    1.000
    Si4724   Si       0.77817    0.19402    0.62497    1.000
    N4725    N        0.80300    0.18862    0.71559    1.000
    N4726    N        0.77897    0.23563    0.63031    1.000
    Si4727   Si       0.76905    0.21703    0.72021    1.000
    Si4728   Si       0.84087    0.19323    0.73673    1.000
    N4729    N        0.87155    0.21692    0.71604    1.000
    Si4730   Si       0.95980    0.22820    0.65887    1.000
    Si4731   Si       0.89001    0.20423    0.67777    1.000
    N4732    N        0.88560    0.23415    0.64727    1.000
    N4733    N        0.93295    0.19929    0.67982    1.000
    N4734    N        0.79242    0.22850    0.83291    1.000
    Si4735   Si       0.83050    0.22276    0.85324    1.000
    N4736    N        0.83570    0.21029    0.77750    1.000
    Si4737   Si       0.79530    0.20523    0.79281    1.000
    N4738    N        0.76675    0.21982    0.76322    1.000
    Si4739   Si       0.74448    0.22457    0.84551    1.000
    N4740    N        0.74070    0.19174    0.81574    1.000
    N4741    N        0.86801    0.23931    0.83438    1.000
    Si4742   Si       0.90257    0.21290    0.84917    1.000
    N4743    N        0.97017    0.22756    0.78997    1.000
    Si4744   Si       0.87414    0.22013    0.79315    1.000
    N4745    N        0.90893    0.19919    0.80826    1.000
    Si4746   Si       0.94954    0.19122    0.79853    1.000
    N4747    N        0.97274    0.18857    0.83615    1.000
    Si4748   Si       0.97692    0.23633    0.83314    1.000
    N4749    N        0.93590    0.24142    0.85869    1.000
    N4750    N        0.83594    0.22154    0.89801    1.000
    N4751    N        0.75174    0.23295    0.94426    1.000
    Si4752   Si       0.74166    0.19185    0.95605    1.000
    Si4753   Si       0.86517    0.18988    0.90620    1.000
    Si4754   Si       0.95125    0.24080    0.97387    1.000
    N4755    N        0.92718    0.21081    0.99495    1.000
    N4756    N        0.90801    0.19586    0.88886    1.000
    N4757    N        0.87659    0.20662    0.94729    1.000
    N4758    N        0.98124    0.20539    0.90170    1.000
    Si4759   Si       0.94160    0.22418    0.89866    1.000
    N4760    N        0.92891    0.24540    0.93534    1.000
    Si4761   Si       0.88781    0.24697    0.95055    1.000
    N4762    N        0.77223    0.28106    0.04816    1.000
    Si4763   Si       0.80069    0.25350    0.03178    1.000
    N4764    N        0.83394    0.28883    0.03954    1.000
    N4765    N        0.74792    0.24567    0.09963    1.000
    Si4766   Si       0.84914    0.26169    0.12366    1.000
    N4767    N        0.95375    0.27275    0.00259    1.000
    N4768    N        0.87702    0.27164    0.09334    1.000
    N4769    N        0.96563    0.29223    0.06624    1.000
    Si4770   Si       0.92101    0.28102    0.08007    1.000
    Si4771   Si       0.96216    0.25578    0.04397    1.000
    N4772    N        0.92195    0.24411    0.05554    1.000
    Si4773   Si       0.97373    0.27168    0.12191    1.000
    Si4774   Si       0.86451    0.30295    0.06596    1.000
    Si4775   Si       0.78891    0.29357    0.15670    1.000
    Si4776   Si       0.80422    0.28852    0.23566    1.000
    N4777    N        0.82472    0.29624    0.13318    1.000
    N4778    N        0.77984    0.24948    0.15771    1.000
    N4779    N        0.81218    0.25017    0.21893    1.000
    N4780    N        0.74459    0.25355    0.21561    1.000
    N4781    N        0.93054    0.29003    0.19279    1.000
    Si4782   Si       0.95163    0.25006    0.19591    1.000
    Si4783   Si       0.90589    0.29440    0.15606    1.000
    N4784    N        0.98057    0.25335    0.16170    1.000
    N4785    N        0.93382    0.28603    0.12275    1.000
    N4786    N        0.87657    0.25930    0.15844    1.000
    Si4787   Si       0.77157    0.28572    0.31187    1.000
    N4788    N        0.79238    0.29723    0.27771    1.000
    N4789    N        0.78175    0.29796    0.35351    1.000
    N4790    N        0.85329    0.29906    0.30533    1.000
    N4791    N        0.86026    0.25552    0.35519    1.000
    Si4792   Si       0.87198    0.28773    0.26729    1.000
    N4793    N        0.96200    0.27876    0.29073    1.000
    Si4794   Si       0.94345    0.26636    0.32804    1.000
    Si4795   Si       0.87312    0.29480    0.34187    1.000
    N4796    N        0.91634    0.29406    0.34777    1.000
    N4797    N        0.87179    0.24644    0.25406    1.000
    Si4798   Si       0.98362    0.24853    0.26683    1.000
    Si4799   Si       0.77158    0.27019    0.38442    1.000
    N4800    N        0.82283    0.28525    0.40754    1.000
    Si4801   Si       0.80530    0.27999    0.44893    1.000
    N4802    N        0.76735    0.26463    0.43099    1.000
    Si4803   Si       0.83322    0.24820    0.38636    1.000
    N4804    N        0.92549    0.24502    0.42262    1.000
    Si4805   Si       0.91768    0.26260    0.46502    1.000
    N4806    N        0.96251    0.25051    0.48139    1.000
    N4807    N        0.98063    0.28111    0.40854    1.000
    N4808    N        0.87091    0.27302    0.45943    1.000
    N4809    N        0.76530    0.27869    0.52040    1.000
    N4810    N        0.82778    0.26938    0.58755    1.000
    N4811    N        0.85063    0.25482    0.52484    1.000
    Si4812   Si       0.88377    0.27479    0.54759    1.000
    N4813    N        0.92024    0.28645    0.52591    1.000
    Si4814   Si       0.96177    0.26870    0.52200    1.000
    Si4815   Si       0.90800    0.25190    0.61361    1.000
    N4816    N        0.98452    0.30428    0.52706    1.000
    Si4817   Si       0.82177    0.24519    0.62332    1.000
    Si4818   Si       0.80880    0.28296    0.69481    1.000
    N4819    N        0.83051    0.26979    0.65739    1.000
    N4820    N        0.77560    0.25423    0.69632    1.000
    N4821    N        0.83435    0.28054    0.73038    1.000
    Si4822   Si       0.75313    0.25242    0.65938    1.000
    N4823    N        0.74530    0.29296    0.64282    1.000
    Si4824   Si       0.87418    0.27532    0.65818    1.000
    Si4825   Si       0.98483    0.27470    0.71053    1.000
    N4826    N        0.95059    0.28988    0.73422    1.000
    N4827    N        0.89495    0.29344    0.62502    1.000
    N4828    N        0.89132    0.28188    0.69655    1.000
    N4829    N        0.97468    0.26653    0.66951    1.000
    Si4830   Si       0.87235    0.25823    0.72864    1.000
    Si4831   Si       0.78765    0.27047    0.84670    1.000
    N4832    N        0.82602    0.27395    0.86435    1.000
    N4833    N        0.75360    0.25992    0.87437    1.000
    Si4834   Si       0.86301    0.28021    0.84403    1.000
    N4835    N        0.97846    0.28044    0.84388    1.000
    N4836    N        0.88620    0.25503    0.76925    1.000
    Si4837   Si       0.88811    0.29587    0.78392    1.000
    Si4838   Si       0.93457    0.28578    0.84371    1.000
    N4839    N        0.92756    0.29662    0.80118    1.000
    N4840    N        0.89717    0.30061    0.86159    1.000
    N4841    N        0.80808    0.26036    0.98826    1.000
    N4842    N        0.79847    0.28730    0.92631    1.000
    Si4843   Si       0.82942    0.26246    0.90793    1.000
    Si4844   Si       0.77659    0.26734    0.95714    1.000
    N4845    N        0.74980    0.29643    0.97050    1.000
    Si4846   Si       0.84545    0.28502    0.99561    1.000
    N4847    N        0.88035    0.26068    0.99271    1.000
    N4848    N        0.86429    0.27721    0.92947    1.000
    Si4849   Si       0.79846    0.31466    0.04608    1.000
    N4850    N        0.78817    0.34183    0.07843    1.000
    N4851    N        0.80467    0.34867    0.01920    1.000
    N4852    N        0.85641    0.33696    0.09024    1.000
    Si4853   Si       0.77430    0.35355    0.11631    1.000
    N4854    N        0.90412    0.31139    0.05038    1.000
    Si4855   Si       0.92133    0.34421    0.02751    1.000
    N4856    N        0.95828    0.35582    0.04808    1.000
    N4857    N        0.97363    0.35805    0.11092    1.000
    Si4858   Si       0.98784    0.32551    0.08503    1.000
    Si4859   Si       0.84474    0.33480    0.13233    1.000
    Si4860   Si       0.82854    0.35216    0.23515    1.000
    N4861    N        0.75718    0.31958    0.13731    1.000
    Si4862   Si       0.76604    0.34516    0.20730    1.000
    N4863    N        0.79017    0.30857    0.19779    1.000
    N4864    N        0.78619    0.35607    0.24356    1.000
    N4865    N        0.84188    0.31157    0.24241    1.000
    N4866    N        0.88097    0.33211    0.15514    1.000
    N4867    N        0.90845    0.35303    0.21779    1.000
    N4868    N        0.97302    0.34930    0.18120    1.000
    Si4869   Si       0.94361    0.32906    0.20855    1.000
    N4870    N        0.97238    0.32048    0.24089    1.000
    N4871    N        0.79653    0.34909    0.31462    1.000
    Si4872   Si       0.78302    0.34230    0.35713    1.000
    Si4873   Si       0.82504    0.32510    0.28779    1.000
    N4874    N        0.86236    0.32946    0.36760    1.000
    N4875    N        0.73796    0.34709    0.36181    1.000
    Si4876   Si       0.89140    0.35629    0.25948    1.000
    N4877    N        0.96397    0.34929    0.30090    1.000
    Si4878   Si       0.94810    0.31658    0.27632    1.000
    Si4879   Si       0.94146    0.32773    0.36245    1.000
    N4880    N        0.97963    0.31401    0.34914    1.000
    N4881    N        0.90543    0.31558    0.26968    1.000
    N4882    N        0.92111    0.36504    0.34985    1.000
    N4883    N        0.80011    0.35354    0.39646    1.000
    N4884    N        0.85179    0.34213    0.43597    1.000
    Si4885   Si       0.85453    0.31322    0.46811    1.000
    Si4886   Si       0.83384    0.32670    0.40026    1.000
    N4887    N        0.81055    0.31029    0.47912    1.000
    N4888    N        0.75196    0.34288    0.49805    1.000
    Si4889   Si       0.96145    0.31059    0.43362    1.000
    N4890    N        0.94385    0.33622    0.40441    1.000
    N4891    N        0.92924    0.30633    0.46410    1.000
    N4892    N        0.81357    0.33837    0.54216    1.000
    N4893    N        0.77965    0.32851    0.59133    1.000
    Si4894   Si       0.78364    0.31692    0.51184    1.000
    N4895    N        0.84598    0.34306    0.61168    1.000
    Si4896   Si       0.82376    0.31232    0.58425    1.000
    Si4897   Si       0.85693    0.34448    0.53493    1.000
    Si4898   Si       0.74291    0.31224    0.60412    1.000
    N4899    N        0.86927    0.31360    0.56404    1.000
    Si4900   Si       0.88642    0.32914    0.60282    1.000
    N4901    N        0.92398    0.35207    0.59099    1.000
    Si4902   Si       0.92018    0.32310    0.50444    1.000
    N4903    N        0.87683    0.33249    0.49983    1.000
    Si4904   Si       0.96199    0.35969    0.60995    1.000
    N4905    N        0.93338    0.36143    0.51981    1.000
    Si4906   Si       0.84608    0.32544    0.73136    1.000
    N4907    N        0.81013    0.32624    0.69591    1.000
    N4908    N        0.85973    0.36332    0.71001    1.000
    Si4909   Si       0.91723    0.31165    0.71534    1.000
    N4910    N        0.93556    0.34826    0.70134    1.000
    N4911    N        0.97320    0.33476    0.64522    1.000
    Si4912   Si       0.81534    0.32148    0.79899    1.000
    N4913    N        0.82337    0.34428    0.76335    1.000
    Si4914   Si       0.76348    0.33760    0.84315    1.000
    N4915    N        0.81133    0.35118    0.83231    1.000
    N4916    N        0.77688    0.30068    0.81862    1.000
    N4917    N        0.85115    0.29943    0.80606    1.000
    N4918    N        0.97021    0.34498    0.76555    1.000
    N4919    N        0.88708    0.31847    0.74718    1.000
    Si4920   Si       0.96095    0.30330    0.77383    1.000
    N4921    N        0.84752    0.32274    0.97391    1.000
    N4922    N        0.76662    0.33946    0.88672    1.000
    Si4923   Si       0.79625    0.33035    0.91842    1.000
    N4924    N        0.83708    0.33628    0.90237    1.000
    Si4925   Si       0.82371    0.35931    0.98104    1.000
    N4926    N        0.79488    0.36246    0.94931    1.000
    Si4927   Si       0.90311    0.34109    0.88001    1.000
    N4928    N        0.94587    0.34441    0.87430    1.000
    Si4929   Si       0.86328    0.32075    0.93398    1.000
    N4930    N        0.90052    0.34510    0.92501    1.000
    Si4931   Si       0.96880    0.33766    0.91140    1.000
    N4932    N        0.93377    0.33919    0.98705    1.000
    Si4933   Si       0.96612    0.30958    0.98286    1.000
    N4934    N        0.97282    0.30539    0.94146    1.000
    Si4935   Si       0.80031    0.37717    0.05150    1.000
    N4936    N        0.83706    0.39625    0.06618    1.000
    N4937    N        0.76824    0.40449    0.05081    1.000
    Si4938   Si       0.74072    0.41378    0.08399    1.000
    N4939    N        0.74873    0.39027    0.11903    1.000
    Si4940   Si       0.94904    0.38167    0.08184    1.000
    N4941    N        0.90850    0.38514    0.09358    1.000
    N4942    N        0.88771    0.37125    0.02946    1.000
    Si4943   Si       0.87179    0.37151    0.07030    1.000
    Si4944   Si       0.88189    0.40561    0.00504    1.000
    Si4945   Si       0.90142    0.41334    0.12575    1.000
    N4946    N        0.96572    0.41973    0.06891    1.000
    N4947    N        0.83990    0.37039    0.19710    1.000
    N4948    N        0.76748    0.38215    0.18499    1.000
    Si4949   Si       0.80917    0.38931    0.17167    1.000
    N4950    N        0.81320    0.36345    0.13766    1.000
    Si4951   Si       0.88103    0.36428    0.18366    1.000
    N4952    N        0.89789    0.39874    0.16551    1.000
    N4953    N        0.79577    0.40685    0.28481    1.000
    Si4954   Si       0.83523    0.39405    0.29705    1.000
    N4955    N        0.85077    0.38856    0.33571    1.000
    Si4956   Si       0.77391    0.36948    0.28370    1.000
    N4957    N        0.85031    0.36163    0.27162    1.000
    N4958    N        0.91112    0.38550    0.28534    1.000
    Si4959   Si       0.94125    0.38236    0.31475    1.000
    Si4960   Si       0.87848    0.36860    0.36014    1.000
    N4961    N        0.96771    0.41319    0.33211    1.000
    N4962    N        0.74040    0.38599    0.41684    1.000
    Si4963   Si       0.78659    0.38652    0.42194    1.000
    N4964    N        0.78149    0.39632    0.46822    1.000
    N4965    N        0.83964    0.41282    0.44344    1.000
    N4966    N        0.88525    0.39192    0.39811    1.000
    N4967    N        0.97302    0.39650    0.47029    1.000
    Si4968   Si       0.86837    0.38182    0.43914    1.000
    Si4969   Si       0.98553    0.40880    0.43127    1.000
    N4970    N        0.95335    0.40586    0.40340    1.000
    Si4971   Si       0.92417    0.37430    0.41156    1.000
    Si4972   Si       0.93286    0.39068    0.48700    1.000
    N4973    N        0.90896    0.37764    0.45320    1.000
    N4974    N        0.81728    0.39945    0.57982    1.000
    N4975    N        0.76894    0.39174    0.54271    1.000
    N4976    N        0.75821    0.39624    0.60628    1.000
    Si4977   Si       0.84948    0.41761    0.55299    1.000
    Si4978   Si       0.83744    0.38474    0.61640    1.000
    Si4979   Si       0.75501    0.38728    0.50216    1.000
    Si4980   Si       0.78932    0.36458    0.56985    1.000
    N4981    N        0.87424    0.38170    0.54791    1.000
    Si4982   Si       0.91879    0.38122    0.55674    1.000
    N4983    N        0.92772    0.41955    0.57405    1.000
    N4984    N        0.87245    0.40986    0.62122    1.000
    N4985    N        0.91295    0.42377    0.50617    1.000
    N4986    N        0.80075    0.39141    0.71973    1.000
    N4987    N        0.81232    0.38748    0.65181    1.000
    Si4988   Si       0.81998    0.36763    0.69022    1.000
    Si4989   Si       0.77831    0.41540    0.64207    1.000
    Si4990   Si       0.77010    0.41954    0.72006    1.000
    N4991    N        0.98156    0.38694    0.70699    1.000
    Si4992   Si       0.88322    0.39921    0.72425    1.000
    Si4993   Si       0.95114    0.37075    0.73627    1.000
    Si4994   Si       0.96246    0.36674    0.67142    1.000
    N4995    N        0.96254    0.39634    0.63472    1.000
    Si4996   Si       0.79370    0.39229    0.82911    1.000
    N4997    N        0.79501    0.40714    0.78955    1.000
    N4998    N        0.75286    0.37904    0.83039    1.000
    Si4999   Si       0.82014    0.38644    0.75876    1.000
    N5000    N        0.85399    0.41304    0.75423    1.000
    Si5001   Si       0.74226    0.41016    0.78754    1.000
    N5002    N        0.81468    0.40408    0.86666    1.000
    N5003    N        0.92032    0.39547    0.75147    1.000
    N5004    N        0.94805    0.38447    0.81593    1.000
    Si5005   Si       0.95462    0.38397    0.85811    1.000
    Si5006   Si       0.92361    0.41350    0.79147    1.000
    Si5007   Si       0.88357    0.41499    0.85375    1.000
    N5008    N        0.87622    0.37282    0.86439    1.000
    Si5009   Si       0.98391    0.36608    0.80071    1.000
    Si5010   Si       0.83376    0.36321    0.86898    1.000
    N5011    N        0.84354    0.39752    0.98640    1.000
    Si5012   Si       0.76337    0.39038    0.95291    1.000
    N5013    N        0.75984    0.41382    0.91724    1.000
    N5014    N        0.77908    0.41866    0.98467    1.000
    N5015    N        0.92670    0.41412    0.86871    1.000
    Si5016   Si       0.92373    0.36846    0.95441    1.000
    N5017    N        0.96219    0.37493    0.93573    1.000
    N5018    N        0.90884    0.40630    0.97123    1.000
    Si5019   Si       0.75530    0.43185    0.01814    1.000
    Si5020   Si       0.85443    0.43653    0.07246    1.000
    N5021    N        0.83119    0.47095    0.06286    1.000
    N5022    N        0.75895    0.47445    0.02906    1.000
    Si5023   Si       0.84933    0.47471    0.02411    1.000
    N5024    N        0.74638    0.45541    0.09349    1.000
    N5025    N        0.86615    0.43508    0.11518    1.000
    Si5026   Si       0.95696    0.45522    0.08996    1.000
    N5027    N        0.88025    0.44328    0.03423    1.000
    Si5028   Si       0.91148    0.47175    0.03179    1.000
    N5029    N        0.93185    0.46485    0.99645    1.000
    N5030    N        0.93555    0.44148    0.12529    1.000
    N5031    N        0.81697    0.43234    0.16960    1.000
    Si5032   Si       0.78561    0.45621    0.18532    1.000
    Si5033   Si       0.84934    0.45542    0.15021    1.000
    N5034    N        0.77907    0.45133    0.22925    1.000
    N5035    N        0.74562    0.45103    0.16772    1.000
    N5036    N        0.90087    0.42326    0.23237    1.000
    N5037    N        0.95103    0.45113    0.19495    1.000
    N5038    N        0.88008    0.46245    0.18107    1.000
    Si5039   Si       0.98426    0.43820    0.21891    1.000
    Si5040   Si       0.96751    0.45292    0.15259    1.000
    Si5041   Si       0.91023    0.43312    0.19258    1.000
    Si5042   Si       0.77611    0.44257    0.27067    1.000
    N5043    N        0.85643    0.43025    0.28359    1.000
    Si5044   Si       0.84291    0.47017    0.28491    1.000
    N5045    N        0.80106    0.47665    0.28173    1.000
    N5046    N        0.91729    0.45973    0.29026    1.000
    N5047    N        0.90984    0.44370    0.35841    1.000
    Si5048   Si       0.89846    0.42544    0.27447    1.000
    N5049    N        0.98384    0.46553    0.25285    1.000
    Si5050   Si       0.94921    0.43000    0.36807    1.000
    Si5051   Si       0.90189    0.47425    0.32898    1.000
    N5052    N        0.81327    0.46666    0.46608    1.000
    Si5053   Si       0.82232    0.44990    0.42350    1.000
    N5054    N        0.78609    0.43161    0.40704    1.000
    Si5055   Si       0.77207    0.46936    0.38253    1.000
    N5056    N        0.74737    0.46179    0.45628    1.000
    N5057    N        0.84685    0.45732    0.38871    1.000
    Si5058   Si       0.81494    0.42178    0.47741    1.000
    N5059    N        0.97263    0.46706    0.37125    1.000
    N5060    N        0.90193    0.45515    0.42838    1.000
    Si5061   Si       0.88547    0.43523    0.39382    1.000
    N5062    N        0.87840    0.47977    0.49532    1.000
    N5063    N        0.83006    0.43117    0.51638    1.000
    N5064    N        0.74867    0.45303    0.55811    1.000
    Si5065   Si       0.83591    0.47468    0.50203    1.000
    N5066    N        0.79067    0.44877    0.61577    1.000
    Si5067   Si       0.77764    0.42466    0.57753    1.000
    N5068    N        0.87375    0.45543    0.56267    1.000
    Si5069   Si       0.90272    0.45914    0.52744    1.000
    Si5070   Si       0.96214    0.44410    0.56081    1.000
    Si5071   Si       0.89569    0.43744    0.59767    1.000
    N5072    N        0.94235    0.47536    0.53769    1.000
    N5073    N        0.98446    0.45988    0.59403    1.000
    N5074    N        0.83612    0.46118    0.66379    1.000
    N5075    N        0.75562    0.42603    0.67822    1.000
    N5076    N        0.78046    0.45486    0.74036    1.000
    Si5077   Si       0.98968    0.43009    0.70423    1.000
    Si5078   Si       0.91718    0.46243    0.71764    1.000
    N5079    N        0.90389    0.46672    0.62924    1.000
    N5080    N        0.89380    0.42997    0.69667    1.000
    N5081    N        0.95929    0.45522    0.72076    1.000
    Si5082   Si       0.87980    0.45767    0.66506    1.000
    N5083    N        0.83112    0.46677    0.78962    1.000
    Si5084   Si       0.79115    0.45225    0.78298    1.000
    N5085    N        0.74973    0.44968    0.79987    1.000
    Si5086   Si       0.74211    0.46698    0.86621    1.000
    Si5087   Si       0.86669    0.44661    0.77890    1.000
    N5088    N        0.95113    0.44979    0.79216    1.000
    N5089    N        0.89927    0.46795    0.75943    1.000
    N5090    N        0.88834    0.42646    0.81113    1.000
    N5091    N        0.78436    0.46512    0.87430    1.000
    Si5092   Si       0.81867    0.43142    0.97518    1.000
    N5093    N        0.82236    0.43750    0.93124    1.000
    Si5094   Si       0.85333    0.46545    0.91862    1.000
    Si5095   Si       0.79587    0.43039    0.89792    1.000
    N5096    N        0.82009    0.47044    0.99094    1.000
    Si5097   Si       0.98239    0.47485    0.92723    1.000
    Si5098   Si       0.92157    0.45401    0.88684    1.000
    N5099    N        0.88379    0.47476    0.94915    1.000
    Si5100   Si       0.91786    0.44798    0.95947    1.000
    N5101    N        0.87769    0.44783    0.88434    1.000
    N5102    N        0.94315    0.45624    0.92506    1.000
    N5103    N        0.78765    0.51604    0.08901    1.000
    Si5104   Si       0.82771    0.50320    0.09264    1.000
    Si5105   Si       0.75701    0.49289    0.06964    1.000
    N5106    N        0.85807    0.53121    0.07905    1.000
    Si5107   Si       0.78192    0.49440    0.99721    1.000
    N5108    N        0.79270    0.53782    0.00536    1.000
    N5109    N        0.87970    0.50557    0.01628    1.000
    Si5110   Si       0.95318    0.52490    0.06219    1.000
    N5111    N        0.97408    0.52282    0.02505    1.000
    N5112    N        0.97561    0.53580    0.09700    1.000
    N5113    N        0.93572    0.48384    0.06565    1.000
    Si5114   Si       0.80500    0.49080    0.23345    1.000
    N5115    N        0.84039    0.49302    0.13285    1.000
    N5116    N        0.80183    0.49637    0.18775    1.000
    Si5117   Si       0.82978    0.52320    0.16192    1.000
    N5118    N        0.78912    0.53043    0.24022    1.000
    N5119    N        0.84842    0.48620    0.24333    1.000
    N5120    N        0.96511    0.53515    0.21221    1.000
    N5121    N        0.86206    0.52633    0.19136    1.000
    N5122    N        0.96490    0.49769    0.15620    1.000
    Si5123   Si       0.95094    0.49666    0.19765    1.000
    Si5124   Si       0.87763    0.49227    0.21327    1.000
    N5125    N        0.91919    0.49907    0.23072    1.000
    Si5126   Si       0.78587    0.50637    0.30983    1.000
    Si5127   Si       0.83288    0.48568    0.35923    1.000
    N5128    N        0.74515    0.51464    0.30145    1.000
    N5129    N        0.79083    0.48513    0.34654    1.000
    N5130    N        0.85880    0.48278    0.32644    1.000
    N5131    N        0.83403    0.52947    0.37117    1.000
    N5132    N        0.92046    0.51005    0.34529    1.000
    N5133    N        0.95462    0.51940    0.28316    1.000
    N5134    N        0.98827    0.52947    0.34557    1.000
    Si5135   Si       0.95718    0.50585    0.36463    1.000
    Si5136   Si       0.99029    0.53496    0.30335    1.000
    Si5137   Si       0.94651    0.47841    0.26710    1.000
    Si5138   Si       0.77816    0.49077    0.45494    1.000
    N5139    N        0.78576    0.49879    0.41260    1.000
    N5140    N        0.77963    0.52438    0.48443    1.000
    Si5141   Si       0.80402    0.53772    0.40174    1.000
    N5142    N        0.94347    0.49912    0.46955    1.000
    Si5143   Si       0.93676    0.53169    0.43951    1.000
    Si5144   Si       0.90277    0.48565    0.45893    1.000
    N5145    N        0.96021    0.52609    0.40420    1.000
    N5146    N        0.89451    0.52300    0.43794    1.000
    N5147    N        0.83613    0.50064    0.60431    1.000
    N5148    N        0.82887    0.50575    0.53216    1.000
    Si5149   Si       0.85473    0.49548    0.56517    1.000
    Si5150   Si       0.79469    0.53122    0.52882    1.000
    N5151    N        0.75227    0.53402    0.54019    1.000
    Si5152   Si       0.96186    0.49822    0.50704    1.000
    N5153    N        0.95466    0.51677    0.59802    1.000
    N5154    N        0.89215    0.51677    0.56381    1.000
    Si5155   Si       0.93146    0.53024    0.56342    1.000
    Si5156   Si       0.80994    0.48229    0.63452    1.000
    N5157    N        0.80671    0.51875    0.72096    1.000
    N5158    N        0.78131    0.50706    0.65577    1.000
    N5159    N        0.74559    0.53127    0.73470    1.000
    Si5160   Si       0.80453    0.53470    0.68026    1.000
    Si5161   Si       0.77527    0.49862    0.74148    1.000
    N5162    N        0.84344    0.53540    0.66404    1.000
    Si5163   Si       0.88421    0.53011    0.67711    1.000
    Si5164   Si       0.98843    0.48069    0.74479    1.000
    N5165    N        0.89226    0.49051    0.69206    1.000
    N5166    N        0.89616    0.53519    0.63305    1.000
    N5167    N        0.94936    0.50955    0.66387    1.000
    Si5168   Si       0.92621    0.50386    0.62934    1.000
    Si5169   Si       0.81927    0.50594    0.80110    1.000
    N5170    N        0.77896    0.50230    0.78563    1.000
    N5171    N        0.81932    0.52157    0.84052    1.000
    Si5172   Si       0.73979    0.49280    0.80398    1.000
    N5173    N        0.84206    0.53534    0.77829    1.000
    N5174    N        0.90664    0.51393    0.81263    1.000
    N5175    N        0.96394    0.50835    0.76715    1.000
    Si5176   Si       0.91728    0.52137    0.85424    1.000
    Si5177   Si       0.98008    0.49918    0.85854    1.000
    Si5178   Si       0.92882    0.48776    0.78434    1.000
    N5179    N        0.93842    0.48591    0.86411    1.000
    N5180    N        0.75167    0.50776    0.96574    1.000
    Si5181   Si       0.80145    0.50440    0.87431    1.000
    N5182    N        0.83129    0.50020    0.90583    1.000
    Si5183   Si       0.85859    0.53457    0.91041    1.000
    Si5184   Si       0.96247    0.49672    0.99118    1.000
    Si5185   Si       0.89073    0.51219    0.97005    1.000
    N5186    N        0.93461    0.52513    0.97216    1.000
    N5187    N        0.88675    0.52889    0.88091    1.000
    Si5188   Si       0.81241    0.57193    0.02079    1.000
    Si5189   Si       0.79231    0.55860    0.10104    1.000
    N5190    N        0.80828    0.57621    0.06502    1.000
    N5191    N        0.85501    0.56904    0.01031    1.000
    N5192    N        0.75574    0.57562    0.11790    1.000
    Si5193   Si       0.85856    0.56903    0.10606    1.000
    N5194    N        0.92123    0.55216    0.05607    1.000
    Si5195   Si       0.97826    0.57435    0.11665    1.000
    Si5196   Si       0.91604    0.58372    0.08340    1.000
    Si5197   Si       0.87974    0.54583    0.04096    1.000
    N5198    N        0.87492    0.59026    0.06762    1.000
    N5199    N        0.82306    0.55810    0.13256    1.000
    N5200    N        0.83084    0.58400    0.19399    1.000
    Si5201   Si       0.75380    0.54135    0.21799    1.000
    N5202    N        0.74820    0.57899    0.19582    1.000
    Si5203   Si       0.98164    0.57007    0.19345    1.000
    Si5204   Si       0.86479    0.56566    0.21044    1.000
    N5205    N        0.89872    0.57857    0.12449    1.000
    N5206    N        0.90239    0.58036    0.19616    1.000
    Si5207   Si       0.92165    0.59131    0.15938    1.000
    N5208    N        0.96188    0.57464    0.15580    1.000
    Si5209   Si       0.93630    0.53678    0.24584    1.000
    Si5210   Si       0.83639    0.55428    0.33478    1.000
    Si5211   Si       0.81049    0.56085    0.26185    1.000
    N5212    N        0.85155    0.56522    0.25319    1.000
    N5213    N        0.74652    0.59045    0.30383    1.000
    N5214    N        0.80882    0.54323    0.30319    1.000
    N5215    N        0.82802    0.59527    0.34459    1.000
    N5216    N        0.79057    0.59757    0.24969    1.000
    Si5217   Si       0.91051    0.55144    0.34328    1.000
    Si5218   Si       0.87900    0.58168    0.28134    1.000
    N5219    N        0.87625    0.55870    0.31723    1.000
    N5220    N        0.93632    0.58655    0.33850    1.000
    N5221    N        0.91503    0.57139    0.25912    1.000
    N5222    N        0.99002    0.57679    0.29400    1.000
    N5223    N        0.83074    0.55778    0.43225    1.000
    N5224    N        0.78023    0.57028    0.38891    1.000
    N5225    N        0.75105    0.59241    0.49331    1.000
    Si5226   Si       0.74193    0.58238    0.40048    1.000
    Si5227   Si       0.74580    0.54776    0.49797    1.000
    Si5228   Si       0.87255    0.55417    0.42071    1.000
    N5229    N        0.88025    0.59386    0.44171    1.000
    N5230    N        0.94384    0.56874    0.46080    1.000
    N5231    N        0.89466    0.56440    0.38432    1.000
    N5232    N        0.80069    0.57662    0.53845    1.000
    N5233    N        0.82972    0.56795    0.60408    1.000
    Si5234   Si       0.79449    0.58321    0.58208    1.000
    N5235    N        0.74988    0.58478    0.59191    1.000
    Si5236   Si       0.85418    0.53671    0.62098    1.000
    N5237    N        0.92709    0.57207    0.57445    1.000
    Si5238   Si       0.96480    0.57207    0.50111    1.000
    N5239    N        0.95286    0.53708    0.52437    1.000
    Si5240   Si       0.91335    0.57350    0.61698    1.000
    Si5241   Si       0.74465    0.57704    0.68567    1.000
    N5242    N        0.78683    0.57504    0.68641    1.000
    N5243    N        0.84713    0.57564    0.72207    1.000
    N5244    N        0.90918    0.56047    0.69626    1.000
    Si5245   Si       0.88777    0.58325    0.72911    1.000
    Si5246   Si       0.94822    0.56951    0.67980    1.000
    N5247    N        0.95071    0.58433    0.63647    1.000
    N5248    N        0.78763    0.57823    0.76183    1.000
    Si5249   Si       0.82856    0.56535    0.84766    1.000
    Si5250   Si       0.74407    0.56911    0.75326    1.000
    N5251    N        0.80001    0.59235    0.83135    1.000
    Si5252   Si       0.81855    0.55194    0.74522    1.000
    N5253    N        0.86576    0.57162    0.83014    1.000
    Si5254   Si       0.98922    0.53821    0.78729    1.000
    Si5255   Si       0.98122    0.57117    0.83982    1.000
    Si5256   Si       0.88001    0.54596    0.79677    1.000
    N5257    N        0.90172    0.57459    0.77044    1.000
    N5258    N        0.96403    0.57341    0.80026    1.000
    N5259    N        0.95248    0.54695    0.86461    1.000
    N5260    N        0.77679    0.57825    0.94974    1.000
    N5261    N        0.83462    0.56871    0.89367    1.000
    Si5262   Si       0.79113    0.57230    0.90889    1.000
    Si5263   Si       0.76310    0.54883    0.97536    1.000
    N5264    N        0.77506    0.53651    0.88896    1.000
    N5265    N        0.91541    0.59344    0.96845    1.000
    N5266    N        0.87177    0.54355    0.94941    1.000
    Si5267   Si       0.87243    0.58179    0.97036    1.000
    N5268    N        0.96626    0.57896    0.92942    1.000
    Si5269   Si       0.94745    0.56516    0.96525    1.000
    N5270    N        0.98600    0.57516    0.98643    1.000
    Si5271   Si       0.94338    0.58013    0.89201    1.000
    Si5272   Si       0.83670    0.61102    0.06864    1.000
    N5273    N        0.82585    0.64893    0.05483    1.000
    N5274    N        0.84244    0.61364    0.11220    1.000
    N5275    N        0.79577    0.61099    0.00534    1.000
    Si5276   Si       0.80694    0.65194    0.01608    1.000
    N5277    N        0.97089    0.63276    0.03296    1.000
    Si5278   Si       0.97923    0.63352    0.07522    1.000
    N5279    N        0.95468    0.60250    0.09126    1.000
    N5280    N        0.90367    0.65386    0.01032    1.000
    N5281    N        0.82429    0.64864    0.22007    1.000
    N5282    N        0.79154    0.62189    0.16301    1.000
    Si5283   Si       0.80217    0.61260    0.20963    1.000
    Si5284   Si       0.83153    0.60295    0.15439    1.000
    N5285    N        0.86212    0.63347    0.16693    1.000
    Si5286   Si       0.86275    0.64786    0.12712    1.000
    Si5287   Si       0.75548    0.59611    0.15734    1.000
    N5288    N        0.89094    0.63331    0.23501    1.000
    Si5289   Si       0.86442    0.65131    0.20558    1.000
    Si5290   Si       0.96535    0.64231    0.19957    1.000
    N5291    N        0.93869    0.63414    0.16912    1.000
    Si5292   Si       0.91991    0.60233    0.22906    1.000
    N5293    N        0.96423    0.60241    0.22061    1.000
    Si5294   Si       0.76129    0.61901    0.27475    1.000
    N5295    N        0.77377    0.63456    0.35954    1.000
    Si5296   Si       0.85708    0.62641    0.33528    1.000
    N5297    N        0.78569    0.65215    0.28665    1.000
    Si5298   Si       0.91313    0.60247    0.37366    1.000
    N5299    N        0.87154    0.62221    0.29366    1.000
    Si5300   Si       0.96897    0.60674    0.31766    1.000
    N5301    N        0.96359    0.63274    0.28156    1.000
    N5302    N        0.88599    0.63546    0.36399    1.000
    N5303    N        0.98972    0.62976    0.34838    1.000
    Si5304   Si       0.80176    0.60508    0.37537    1.000
    N5305    N        0.81648    0.61871    0.48075    1.000
    N5306    N        0.82490    0.62292    0.40871    1.000
    N5307    N        0.74657    0.61867    0.42354    1.000
    Si5308   Si       0.83662    0.60054    0.44463    1.000
    Si5309   Si       0.76084    0.65379    0.39888    1.000
    N5310    N        0.92450    0.64114    0.46416    1.000
    Si5311   Si       0.92321    0.60325    0.44331    1.000
    Si5312   Si       0.98428    0.61114    0.38922    1.000
    N5313    N        0.94289    0.61053    0.40371    1.000
    N5314    N        0.80686    0.62386    0.59280    1.000
    Si5315   Si       0.78698    0.60699    0.51190    1.000
    N5316    N        0.77242    0.64235    0.53487    1.000
    Si5317   Si       0.83868    0.61208    0.61957    1.000
    N5318    N        0.94992    0.60855    0.52050    1.000
    Si5319   Si       0.94420    0.61090    0.56311    1.000
    N5320    N        0.91416    0.63972    0.57615    1.000
    Si5321   Si       0.89430    0.64236    0.61560    1.000
    N5322    N        0.98325    0.61678    0.58093    1.000
    Si5323   Si       0.95007    0.64652    0.49932    1.000
    Si5324   Si       0.78112    0.65231    0.74163    1.000
    N5325    N        0.83006    0.61946    0.66219    1.000
    N5326    N        0.81648    0.63750    0.72475    1.000
    Si5327   Si       0.81938    0.60149    0.69821    1.000
    N5328    N        0.88778    0.62682    0.72887    1.000
    Si5329   Si       0.94978    0.64661    0.66850    1.000
    N5330    N        0.98601    0.64288    0.64664    1.000
    N5331    N        0.88270    0.60300    0.62404    1.000
    Si5332   Si       0.98641    0.60508    0.62403    1.000
    Si5333   Si       0.92900    0.63658    0.72462    1.000
    N5334    N        0.94737    0.61130    0.69449    1.000
    N5335    N        0.84148    0.62436    0.78889    1.000
    N5336    N        0.77314    0.64291    0.78343    1.000
    Si5337   Si       0.80123    0.60874    0.79120    1.000
    Si5338   Si       0.76317    0.60405    0.85399    1.000
    Si5339   Si       0.85367    0.64487    0.75082    1.000
    N5340    N        0.85341    0.63283    0.86449    1.000
    Si5341   Si       0.86454    0.61511    0.82465    1.000
    N5342    N        0.94802    0.62963    0.76307    1.000
    N5343    N        0.90459    0.62552    0.81733    1.000
    Si5344   Si       0.93027    0.60098    0.79088    1.000
    N5345    N        0.96778    0.60711    0.86597    1.000
    N5346    N        0.77927    0.61057    0.89264    1.000
    Si5347   Si       0.75981    0.60666    0.97951    1.000
    N5348    N        0.85805    0.61291    0.94366    1.000
    Si5349   Si       0.85883    0.60554    0.89843    1.000
    Si5350   Si       0.78201    0.65485    0.89605    1.000
    Si5351   Si       0.84828    0.65602    0.95015    1.000
    N5352    N        0.94677    0.64505    0.92474    1.000
    Si5353   Si       0.90782    0.62489    0.93862    1.000
    Si5354   Si       0.98153    0.63607    0.89867    1.000
    N5355    N        0.90328    0.60155    0.90028    1.000
    Si5356   Si       0.83044    0.68718    0.07524    1.000
    N5357    N        0.77328    0.67735    0.02382    1.000
    N5358    N        0.83577    0.68143    0.11670    1.000
    Si5359   Si       0.76624    0.71426    0.04743    1.000
    N5360    N        0.86725    0.69831    0.05386    1.000
    N5361    N        0.97062    0.66411    0.10532    1.000
    Si5362   Si       0.89865    0.69839    0.08211    1.000
    N5363    N        0.93355    0.69584    0.05378    1.000
    Si5364   Si       0.87385    0.68488    0.01307    1.000
    N5365    N        0.89967    0.66435    0.11258    1.000
    Si5366   Si       0.94327    0.66241    0.02218    1.000
    N5367    N        0.77018    0.70005    0.13231    1.000
    N5368    N        0.75049    0.68279    0.19572    1.000
    Si5369   Si       0.74363    0.66917    0.15338    1.000
    Si5370   Si       0.81095    0.71259    0.13436    1.000
    N5371    N        0.79370    0.70913    0.24159    1.000
    N5372    N        0.82312    0.71028    0.17945    1.000
    Si5373   Si       0.92866    0.70128    0.19935    1.000
    Si5374   Si       0.93937    0.66412    0.13468    1.000
    N5375    N        0.93962    0.70018    0.15735    1.000
    N5376    N        0.95207    0.67442    0.22500    1.000
    N5377    N        0.88638    0.68943    0.20446    1.000
    N5378    N        0.85039    0.68740    0.27219    1.000
    N5379    N        0.78912    0.70201    0.34693    1.000
    Si5380   Si       0.81239    0.67217    0.25691    1.000
    Si5381   Si       0.83346    0.70437    0.34914    1.000
    N5382    N        0.83395    0.66357    0.33375    1.000
    Si5383   Si       0.79085    0.66236    0.32836    1.000
    N5384    N        0.91582    0.68235    0.28520    1.000
    Si5385   Si       0.95487    0.67260    0.26797    1.000
    N5386    N        0.88354    0.70921    0.34580    1.000
    N5387    N        0.98459    0.70020    0.28572    1.000
    Si5388   Si       0.88129    0.65702    0.27094    1.000
    N5389    N        0.98924    0.70116    0.36356    1.000
    N5390    N        0.80885    0.69192    0.49041    1.000
    N5391    N        0.84314    0.69161    0.39113    1.000
    Si5392   Si       0.82730    0.66400    0.42023    1.000
    N5393    N        0.78645    0.67519    0.42613    1.000
    Si5394   Si       0.78641    0.70573    0.45605    1.000
    N5395    N        0.85598    0.66392    0.45292    1.000
    Si5396   Si       0.83517    0.65729    0.49076    1.000
    N5397    N        0.91401    0.71274    0.46357    1.000
    Si5398   Si       0.88418    0.67607    0.37530    1.000
    N5399    N        0.91096    0.68562    0.40740    1.000
    Si5400   Si       0.89921    0.67268    0.45149    1.000
    N5401    N        0.81227    0.69177    0.56312    1.000
    Si5402   Si       0.84803    0.69133    0.59111    1.000
    N5403    N        0.75481    0.67524    0.60208    1.000
    N5404    N        0.85318    0.65888    0.61787    1.000
    Si5405   Si       0.78539    0.65769    0.57443    1.000
    N5406    N        0.75647    0.71151    0.52267    1.000
    Si5407   Si       0.80183    0.71390    0.52742    1.000
    Si5408   Si       0.74110    0.67184    0.52439    1.000
    N5409    N        0.92944    0.67918    0.51981    1.000
    N5410    N        0.88560    0.70015    0.57023    1.000
    Si5411   Si       0.89735    0.66603    0.54493    1.000
    Si5412   Si       0.97846    0.71334    0.55077    1.000
    N5413    N        0.86140    0.65578    0.52300    1.000
    Si5414   Si       0.75973    0.70103    0.63905    1.000
    Si5415   Si       0.83180    0.66258    0.65889    1.000
    N5416    N        0.77895    0.69425    0.73814    1.000
    N5417    N        0.79972    0.68946    0.65081    1.000
    N5418    N        0.86170    0.68200    0.68540    1.000
    Si5419   Si       0.74107    0.69447    0.71701    1.000
    Si5420   Si       0.86010    0.71230    0.71758    1.000
    Si5421   Si       0.90456    0.68959    0.68036    1.000
    Si5422   Si       0.97040    0.69790    0.71957    1.000
    N5423    N        0.93884    0.67344    0.70278    1.000
    N5424    N        0.91564    0.66227    0.64715    1.000
    N5425    N        0.79727    0.67885    0.86123    1.000
    N5426    N        0.74595    0.70335    0.81774    1.000
    Si5427   Si       0.78634    0.70920    0.83000    1.000
    Si5428   Si       0.74115    0.66018    0.80809    1.000
    N5429    N        0.85925    0.68719    0.75377    1.000
    Si5430   Si       0.85875    0.71225    0.79062    1.000
    Si5431   Si       0.97001    0.66262    0.78051    1.000
    N5432    N        0.95577    0.66776    0.81997    1.000
    N5433    N        0.96877    0.70272    0.76288    1.000
    N5434    N        0.88436    0.69552    0.82042    1.000
    Si5435   Si       0.91292    0.66523    0.83036    1.000
    Si5436   Si       0.96292    0.69237    0.85451    1.000
    N5437    N        0.92114    0.68518    0.86990    1.000
    Si5438   Si       0.83679    0.66903    0.87724    1.000
    N5439    N        0.74993    0.67348    0.91850    1.000
    N5440    N        0.84057    0.66993    0.98949    1.000
    N5441    N        0.85020    0.70902    0.87908    1.000
    N5442    N        0.74513    0.71061    0.97414    1.000
    N5443    N        0.81848    0.66096    0.91910    1.000
    Si5444   Si       0.75556    0.71474    0.93165    1.000
    N5445    N        0.95632    0.69461    0.99381    1.000
    Si5446   Si       0.92398    0.68011    0.91348    1.000
    N5447    N        0.88758    0.66554    0.93460    1.000
    Si5448   Si       0.97303    0.70747    0.95684    1.000
    N5449    N        0.76428    0.75112    0.02354    1.000
    Si5450   Si       0.81126    0.76068    0.08340    1.000
    N5451    N        0.80240    0.71871    0.06970    1.000
    N5452    N        0.82829    0.75079    0.12257    1.000
    N5453    N        0.96652    0.73621    0.10144    1.000
    N5454    N        0.89919    0.73405    0.10712    1.000
    N5455    N        0.94900    0.76063    0.02044    1.000
    Si5456   Si       0.93364    0.72155    0.01757    1.000
    N5457    N        0.76564    0.74920    0.18842    1.000
    N5458    N        0.85163    0.74607    0.23366    1.000
    Si5459   Si       0.86019    0.72295    0.19727    1.000
    Si5460   Si       0.78433    0.71164    0.20011    1.000
    Si5461   Si       0.93630    0.73507    0.13277    1.000
    N5462    N        0.88101    0.74752    0.17061    1.000
    N5463    N        0.93997    0.74318    0.20817    1.000
    Si5464   Si       0.87055    0.75818    0.13063    1.000
    Si5465   Si       0.98235    0.75431    0.21068    1.000
    Si5466   Si       0.91363    0.77113    0.18478    1.000
    Si5467   Si       0.79012    0.74797    0.26216    1.000
    N5468    N        0.81853    0.74911    0.29465    1.000
    N5469    N        0.75216    0.75589    0.28131    1.000
    Si5470   Si       0.75938    0.73166    0.34672    1.000
    N5471    N        0.83707    0.74973    0.36307    1.000
    Si5472   Si       0.85246    0.73138    0.27208    1.000
    Si5473   Si       0.98431    0.72186    0.32433    1.000
    N5474    N        0.88686    0.74748    0.29339    1.000
    N5475    N        0.94458    0.73893    0.32819    1.000
    Si5476   Si       0.88005    0.74889    0.36606    1.000
    Si5477   Si       0.90988    0.71547    0.31084    1.000
    N5478    N        0.80758    0.73698    0.43418    1.000
    Si5479   Si       0.83936    0.72998    0.40692    1.000
    N5480    N        0.74592    0.71962    0.45523    1.000
    N5481    N        0.74913    0.74302    0.38760    1.000
    Si5482   Si       0.91639    0.72611    0.42188    1.000
    N5483    N        0.87886    0.74715    0.41288    1.000
    N5484    N        0.95413    0.74442    0.41002    1.000
    N5485    N        0.82277    0.75173    0.53489    1.000
    N5486    N        0.83812    0.73023    0.61163    1.000
    Si5487   Si       0.83666    0.75686    0.57703    1.000
    N5488    N        0.90567    0.74655    0.52271    1.000
    Si5489   Si       0.90432    0.73887    0.56567    1.000
    N5490    N        0.94685    0.73025    0.57298    1.000
    N5491    N        0.97179    0.72972    0.51117    1.000
    Si5492   Si       0.97381    0.76437    0.58515    1.000
    Si5493   Si       0.93220    0.71864    0.50162    1.000
    N5494    N        0.87738    0.77157    0.57594    1.000
    N5495    N        0.76957    0.74073    0.63121    1.000
    N5496    N        0.83080    0.74217    0.72809    1.000
    Si5497   Si       0.81236    0.73010    0.64470    1.000
    N5498    N        0.81987    0.76720    0.66611    1.000
    N5499    N        0.89933    0.72888    0.70509    1.000
    N5500    N        0.97075    0.73219    0.69265    1.000
    N5501    N        0.98044    0.75981    0.62958    1.000
    Si5502   Si       0.93497    0.75436    0.70543    1.000
    N5503    N        0.78743    0.74409    0.85795    1.000
    Si5504   Si       0.80028    0.72711    0.75722    1.000
    N5505    N        0.77371    0.75926    0.75505    1.000
    N5506    N        0.81450    0.71355    0.79660    1.000
    Si5507   Si       0.75308    0.77095    0.86390    1.000
    Si5508   Si       0.98786    0.72799    0.79525    1.000
    N5509    N        0.87215    0.75423    0.78546    1.000
    N5510    N        0.96506    0.72997    0.83260    1.000
    N5511    N        0.90358    0.75403    0.86111    1.000
    Si5512   Si       0.95043    0.76758    0.84934    1.000
    Si5513   Si       0.89006    0.71500    0.85996    1.000
    N5514    N        0.79304    0.73642    0.92636    1.000
    N5515    N        0.84555    0.76241    0.96748    1.000
    Si5516   Si       0.81687    0.73612    0.88830    1.000
    Si5517   Si       0.81732    0.77415    0.93750    1.000
    N5518    N        0.89345    0.72032    0.99746    1.000
    Si5519   Si       0.94454    0.75870    0.93110    1.000
    Si5520   Si       0.88474    0.76175    0.98520    1.000
    N5521    N        0.97703    0.75154    0.96039    1.000
    N5522    N        0.94283    0.71640    0.92459    1.000
    Si5523   Si       0.85134    0.81071    0.03355    1.000
    N5524    N        0.76737    0.82051    0.01291    1.000
    Si5525   Si       0.77813    0.78894    0.04039    1.000
    N5526    N        0.82143    0.78337    0.04622    1.000
    N5527    N        0.77207    0.78288    0.08256    1.000
    N5528    N        0.93488    0.79652    0.07303    1.000
    Si5529   Si       0.92749    0.79736    0.02991    1.000
    N5530    N        0.88661    0.78948    0.01859    1.000
    Si5531   Si       0.90344    0.82017    0.09330    1.000
    N5532    N        0.86770    0.82978    0.06913    1.000
    Si5533   Si       0.97346    0.77622    0.08240    1.000
    N5534    N        0.83400    0.79608    0.18681    1.000
    Si5535   Si       0.84077    0.78998    0.23001    1.000
    Si5536   Si       0.79053    0.78578    0.19119    1.000
    N5537    N        0.77472    0.82464    0.17968    1.000
    N5538    N        0.79717    0.78223    0.23609    1.000
    N5539    N        0.94764    0.82213    0.23983    1.000
    Si5540   Si       0.86380    0.81807    0.16450    1.000
    Si5541   Si       0.97595    0.79922    0.15309    1.000
    N5542    N        0.88184    0.80268    0.12958    1.000
    Si5543   Si       0.90455    0.82629    0.23362    1.000
    Si5544   Si       0.97901    0.82629    0.20943    1.000
    N5545    N        0.89865    0.81109    0.19327    1.000
    N5546    N        0.94095    0.77380    0.14970    1.000
    N5547    N        0.84863    0.80306    0.32184    1.000
    N5548    N        0.77972    0.82064    0.29619    1.000
    Si5549   Si       0.75050    0.79228    0.30714    1.000
    Si5550   Si       0.78442    0.82145    0.25432    1.000
    N5551    N        0.77336    0.77364    0.33990    1.000
    N5552    N        0.75033    0.83018    0.35835    1.000
    Si5553   Si       0.81730    0.77277    0.33114    1.000
    N5554    N        0.87542    0.80119    0.25486    1.000
    Si5555   Si       0.94081    0.78135    0.33620    1.000
    N5556    N        0.92327    0.80589    0.30363    1.000
    Si5557   Si       0.88267    0.79032    0.29762    1.000
    N5558    N        0.97012    0.79642    0.36161    1.000
    N5559    N        0.90448    0.78352    0.36153    1.000
    Si5560   Si       0.80058    0.77838    0.43904    1.000
    N5561    N        0.80047    0.78791    0.48006    1.000
    Si5562   Si       0.74799    0.78810    0.37820    1.000
    N5563    N        0.77074    0.80050    0.41430    1.000
    N5564    N        0.83705    0.79741    0.42087    1.000
    Si5565   Si       0.76658    0.80259    0.50040    1.000
    N5566    N        0.98324    0.80544    0.43558    1.000
    N5567    N        0.94554    0.78737    0.48691    1.000
    Si5568   Si       0.90611    0.81597    0.38951    1.000
    N5569    N        0.87028    0.78487    0.48144    1.000
    Si5570   Si       0.97805    0.78086    0.40073    1.000
    Si5571   Si       0.94596    0.81587    0.45338    1.000
    N5572    N        0.91229    0.80472    0.43069    1.000
    Si5573   Si       0.87440    0.78477    0.43827    1.000
    N5574    N        0.76937    0.81515    0.54230    1.000
    N5575    N        0.81107    0.78497    0.60077    1.000
    Si5576   Si       0.83411    0.78439    0.50793    1.000
    N5577    N        0.83900    0.82210    0.53108    1.000
    Si5578   Si       0.76749    0.77706    0.60837    1.000
    N5579    N        0.90611    0.82359    0.52159    1.000
    Si5580   Si       0.89545    0.80441    0.59958    1.000
    N5581    N        0.93636    0.79184    0.60583    1.000
    N5582    N        0.97476    0.79370    0.55042    1.000
    Si5583   Si       0.90649    0.78515    0.50434    1.000
    Si5584   Si       0.98001    0.77407    0.51051    1.000
    N5585    N        0.75761    0.81532    0.62666    1.000
    Si5586   Si       0.83203    0.79502    0.63657    1.000
    N5587    N        0.79988    0.81347    0.71624    1.000
    Si5588   Si       0.82662    0.77948    0.70684    1.000
    Si5589   Si       0.76957    0.80027    0.74290    1.000
    N5590    N        0.93100    0.77106    0.74557    1.000
    N5591    N        0.87480    0.79720    0.63697    1.000
    Si5592   Si       0.95608    0.79174    0.64348    1.000
    N5593    N        0.92951    0.78532    0.67708    1.000
    N5594    N        0.98659    0.81940    0.65416    1.000
    Si5595   Si       0.89093    0.80639    0.67634    1.000
    N5596    N        0.86921    0.79139    0.70969    1.000
    N5597    N        0.75509    0.80727    0.83886    1.000
    N5598    N        0.76325    0.82663    0.77642    1.000
    N5599    N        0.86537    0.80924    0.84294    1.000
    N5600    N        0.93279    0.79059    0.81228    1.000
    Si5601   Si       0.95538    0.78904    0.77524    1.000
    N5602    N        0.88051    0.81327    0.77609    1.000
    Si5603   Si       0.88841    0.78784    0.81176    1.000
    Si5604   Si       0.88647    0.78066    0.74999    1.000
    N5605    N        0.74708    0.79434    0.90169    1.000
    N5606    N        0.79864    0.81228    0.94649    1.000
    Si5607   Si       0.76502    0.82678    0.92299    1.000
    N5608    N        0.83812    0.77431    0.89897    1.000
    N5609    N        0.89780    0.81444    0.90442    1.000
    Si5610   Si       0.87507    0.78708    0.88073    1.000
    N5611    N        0.91331    0.77669    0.95571    1.000
    Si5612   Si       0.91488    0.81764    0.94460    1.000
    N5613    N        0.95876    0.77608    0.89345    1.000
    Si5614   Si       0.84912    0.87969    0.01423    1.000
    Si5615   Si       0.75726    0.88275    0.10017    1.000
    N5616    N        0.83527    0.83887    0.00339    1.000
    N5617    N        0.83300    0.89101    0.05271    1.000
    N5618    N        0.79426    0.89590    0.11641    1.000
    Si5619   Si       0.94880    0.88787    0.08715    1.000
    Si5620   Si       0.87180    0.87306    0.07374    1.000
    N5621    N        0.91616    0.86259    0.09435    1.000
    Si5622   Si       0.92939    0.87689    0.01320    1.000
    N5623    N        0.88973    0.87712    0.03210    1.000
    N5624    N        0.97989    0.88082    0.11554    1.000
    N5625    N        0.95862    0.88824    0.04529    1.000
    N5626    N        0.93874    0.83349    0.00749    1.000
    N5627    N        0.81659    0.84148    0.23277    1.000
    Si5628   Si       0.80703    0.85053    0.19159    1.000
    N5629    N        0.83978    0.85661    0.16404    1.000
    Si5630   Si       0.73650    0.83376    0.19756    1.000
    N5631    N        0.78551    0.88953    0.19304    1.000
    N5632    N        0.74597    0.83128    0.23883    1.000
    Si5633   Si       0.96410    0.87889    0.15556    1.000
    N5634    N        0.96680    0.83781    0.16751    1.000
    Si5635   Si       0.84526    0.84800    0.32671    1.000
    N5636    N        0.81322    0.84893    0.35888    1.000
    Si5637   Si       0.77814    0.84793    0.33236    1.000
    N5638    N        0.83223    0.87273    0.29329    1.000
    Si5639   Si       0.84374    0.87041    0.25056    1.000
    N5640    N        0.76878    0.88815    0.31663    1.000
    N5641    N        0.88397    0.86935    0.32770    1.000
    N5642    N        0.94407    0.87103    0.29149    1.000
    N5643    N        0.88787    0.86215    0.25100    1.000
    Si5644   Si       0.90244    0.88237    0.28775    1.000
    Si5645   Si       0.89503    0.87387    0.36951    1.000
    Si5646   Si       0.95399    0.83012    0.28312    1.000
    N5647    N        0.75790    0.83832    0.47702    1.000
    N5648    N        0.80420    0.85699    0.42384    1.000
    Si5649   Si       0.76512    0.83868    0.43428    1.000
    Si5650   Si       0.76164    0.87898    0.49459    1.000
    Si5651   Si       0.82942    0.83098    0.39609    1.000
    N5652    N        0.94748    0.85413    0.47210    1.000
    N5653    N        0.93177    0.85263    0.38295    1.000
    N5654    N        0.87093    0.84091    0.38733    1.000
    Si5655   Si       0.96947    0.87733    0.38318    1.000
    N5656    N        0.80534    0.85524    0.58976    1.000
    N5657    N        0.79276    0.87514    0.52268    1.000
    Si5658   Si       0.80478    0.84210    0.54933    1.000
    N5659    N        0.85014    0.88504    0.55014    1.000
    Si5660   Si       0.83408    0.89150    0.59238    1.000
    Si5661   Si       0.87303    0.84710    0.54131    1.000
    N5662    N        0.96638    0.86583    0.53795    1.000
    N5663    N        0.89229    0.84293    0.58163    1.000
    Si5664   Si       0.93384    0.85646    0.51255    1.000
    Si5665   Si       0.90439    0.87649    0.60688    1.000
    N5666    N        0.90424    0.88696    0.51951    1.000
    Si5667   Si       0.78670    0.84624    0.62762    1.000
    Si5668   Si       0.80919    0.85797    0.71866    1.000
    Si5669   Si       0.84930    0.86561    0.66086    1.000
    N5670    N        0.76719    0.88018    0.64947    1.000
    N5671    N        0.77151    0.87922    0.71858    1.000
    N5672    N        0.83017    0.88602    0.69186    1.000
    N5673    N        0.81975    0.83431    0.64983    1.000
    Si5674   Si       0.74160    0.87764    0.68543    1.000
    N5675    N        0.93793    0.86180    0.63414    1.000
    N5676    N        0.86271    0.88491    0.62300    1.000
    Si5677   Si       0.98290    0.85887    0.63419    1.000
    N5678    N        0.88625    0.84854    0.67681    1.000
    Si5679   Si       0.92021    0.87349    0.67397    1.000
    N5680    N        0.95036    0.86704    0.70239    1.000
    Si5681   Si       0.97799    0.84543    0.72702    1.000
    Si5682   Si       0.79100    0.85907    0.78879    1.000
    Si5683   Si       0.84690    0.84664    0.84260    1.000
    N5684    N        0.80372    0.85078    0.82966    1.000
    N5685    N        0.82421    0.85957    0.76099    1.000
    Si5686   Si       0.76671    0.84694    0.85190    1.000
    Si5687   Si       0.86632    0.85552    0.77364    1.000
    N5688    N        0.86956    0.87185    0.81448    1.000
    Si5689   Si       0.97368    0.86886    0.78324    1.000
    N5690    N        0.89244    0.87896    0.74943    1.000
    N5691    N        0.96400    0.83091    0.76563    1.000
    N5692    N        0.77260    0.85761    0.89452    1.000
    N5693    N        0.78912    0.87743    0.97141    1.000
    Si5694   Si       0.74811    0.88313    0.96159    1.000
    N5695    N        0.85389    0.86481    0.88197    1.000
    Si5696   Si       0.79673    0.83504    0.98281    1.000
    Si5697   Si       0.88817    0.85713    0.90593    1.000
    Si5698   Si       0.96424    0.85865    0.91261    1.000
    N5699    N        0.92763    0.87294    0.89591    1.000
    N5700    N        0.89189    0.85497    0.95208    1.000
    N5701    N        0.95687    0.82916    0.94276    1.000
    Si5702   Si       0.97483    0.83125    0.98271    1.000
    Si5703   Si       0.80321    0.91272    0.07483    1.000
    N5704    N        0.76336    0.90162    0.06209    1.000
    Si5705   Si       0.74329    0.92144    0.03033    1.000
    N5706    N        0.86416    0.89550    0.11109    1.000
    N5707    N        0.93210    0.92860    0.09663    1.000
    N5708    N        0.83915    0.91118    0.23649    1.000
    Si5709   Si       0.75157    0.89770    0.16615    1.000
    Si5710   Si       0.81072    0.92302    0.20313    1.000
    N5711    N        0.83617    0.92311    0.16863    1.000
    N5712    N        0.75941    0.94110    0.16790    1.000
    Si5713   Si       0.83165    0.89125    0.13829    1.000
    N5714    N        0.90051    0.94556    0.19766    1.000
    N5715    N        0.92642    0.90113    0.15652    1.000
    Si5716   Si       0.90005    0.91468    0.12418    1.000
    N5717    N        0.97846    0.90205    0.18951    1.000
    Si5718   Si       0.94345    0.93081    0.18773    1.000
    Si5719   Si       0.80903    0.90817    0.30671    1.000
    N5720    N        0.81931    0.91512    0.34930    1.000
    Si5721   Si       0.85729    0.93954    0.26363    1.000
    N5722    N        0.82609    0.94541    0.29056    1.000
    N5723    N        0.76510    0.94766    0.28353    1.000
    Si5724   Si       0.97091    0.90089    0.31169    1.000
    N5725    N        0.95917    0.90807    0.35331    1.000
    N5726    N        0.89106    0.92527    0.28505    1.000
    N5727    N        0.96117    0.93764    0.29150    1.000
    Si5728   Si       0.93194    0.93571    0.37239    1.000
    N5729    N        0.78115    0.90668    0.46560    1.000
    N5730    N        0.83122    0.91438    0.41119    1.000
    Si5731   Si       0.75125    0.93666    0.38673    1.000
    N5732    N        0.76218    0.89558    0.38587    1.000
    N5733    N        0.84679    0.89789    0.48063    1.000
    Si5734   Si       0.75874    0.94427    0.46045    1.000
    Si5735   Si       0.81799    0.89250    0.44722    1.000
    Si5736   Si       0.80535    0.89045    0.38226    1.000
    N5737    N        0.98201    0.89814    0.42044    1.000
    N5738    N        0.98858    0.90747    0.48841    1.000
    Si5739   Si       0.95905    0.89263    0.45862    1.000
    N5740    N        0.92317    0.91568    0.46061    1.000
    Si5741   Si       0.86584    0.93803    0.40474    1.000
    N5742    N        0.89546    0.91418    0.38458    1.000
    Si5743   Si       0.88745    0.91223    0.48706    1.000
    N5744    N        0.80063    0.91590    0.60451    1.000
    Si5745   Si       0.82487    0.90515    0.51772    1.000
    N5746    N        0.85718    0.93926    0.58087    1.000
    N5747    N        0.74719    0.95056    0.50216    1.000
    N5748    N        0.91625    0.90977    0.58282    1.000
    Si5749   Si       0.88487    0.91285    0.55232    1.000
    N5750    N        0.97686    0.93806    0.55509    1.000
    N5751    N        0.87695    0.94191    0.51676    1.000
    Si5752   Si       0.94397    0.94496    0.58397    1.000
    Si5753   Si       0.98831    0.90308    0.53208    1.000
    N5754    N        0.80114    0.94013    0.73611    1.000
    Si5755   Si       0.77361    0.92020    0.63884    1.000
    Si5756   Si       0.81971    0.92842    0.70054    1.000
    N5757    N        0.79262    0.94423    0.66907    1.000
    N5758    N        0.97872    0.93306    0.68947    1.000
    Si5759   Si       0.96143    0.90510    0.71681    1.000
    N5760    N        0.93362    0.93332    0.73404    1.000
    N5761    N        0.91334    0.91570    0.66505    1.000
    Si5762   Si       0.95126    0.94114    0.65873    1.000
    N5763    N        0.77917    0.91766    0.85693    1.000
    N5764    N        0.84714    0.92688    0.85367    1.000
    Si5765   Si       0.75253    0.90922    0.82390    1.000
    N5766    N        0.77496    0.89958    0.78828    1.000
    Si5767   Si       0.80929    0.94534    0.84548    1.000
    Si5768   Si       0.76928    0.91219    0.74746    1.000
    N5769    N        0.98102    0.91411    0.85818    1.000
    N5770    N        0.91388    0.92031    0.85142    1.000
    Si5771   Si       0.91442    0.91166    0.76671    1.000
    Si5772   Si       0.95008    0.92565    0.82796    1.000
    N5773    N        0.89116    0.93787    0.79242    1.000
    Si5774   Si       0.87851    0.91282    0.82656    1.000
    N5775    N        0.94619    0.89950    0.79390    1.000
    Si5776   Si       0.77324    0.90164    0.89712    1.000
    Si5777   Si       0.84499    0.90741    0.89214    1.000
    N5778    N        0.81042    0.91705    0.91574    1.000
    Si5779   Si       0.80976    0.91251    0.96014    1.000
    N5780    N        0.85097    0.90764    0.98026    1.000
    N5781    N        0.74328    0.90970    0.92743    1.000
    N5782    N        0.94233    0.94422    0.90860    1.000
    Si5783   Si       0.98071    0.92816    0.89959    1.000
    N5784    N        0.92133    0.91106    0.98695    1.000
    Si5785   Si       0.88718    0.89887    0.95898    1.000
    N5786    N        0.88122    0.91095    0.91771    1.000
    Si5787   Si       0.91540    0.91637    0.89280    1.000
    N5788    N        0.99216    0.89276    0.92460    1.000
    N5789    N        0.83193    0.98219    0.01364    1.000
    Si5790   Si       0.80192    0.98270    0.04496    1.000
    N5791    N        0.76406    0.96177    0.03155    1.000
    Si5792   Si       0.85508    0.96662    0.09635    1.000
    N5793    N        0.81494    0.95495    0.07919    1.000
    N5794    N        0.74004    0.97867    0.10236    1.000
    N5795    N        0.85241    0.00899    0.10506    1.000
    Si5796   Si       0.87176    0.99093    0.02712    1.000
    N5797    N        0.93243    0.99152    0.09803    1.000
    N5798    N        0.87958    0.96398    0.06028    1.000
    Si5799   Si       0.92087    0.95971    0.06961    1.000
    N5800    N        0.94697    0.95672    0.03735    1.000
    Si5801   Si       0.95679    0.96077    0.11733    1.000
    Si5802   Si       0.93479    0.95225    0.99669    1.000
    Si5803   Si       0.76276    0.97562    0.19402    1.000
    N5804    N        0.80103    0.96562    0.21290    1.000
    Si5805   Si       0.83367    0.99411    0.21880    1.000
    N5806    N        0.85192    0.99319    0.17890    1.000
    N5807    N        0.86497    0.98045    0.24411    1.000
    N5808    N        0.76205    0.01040    0.16623    1.000
    Si5809   Si       0.96288    0.99315    0.19241    1.000
    Si5810   Si       0.86665    0.95287    0.17228    1.000
    N5811    N        0.87864    0.95358    0.13001    1.000
    Si5812   Si       0.91124    0.97762    0.22899    1.000
    N5813    N        0.95616    0.95761    0.22186    1.000
    N5814    N        0.95717    0.96454    0.16023    1.000
    Si5815   Si       0.79684    0.97933    0.28947    1.000
    N5816    N        0.80048    0.99154    0.33287    1.000
    Si5817   Si       0.81867    0.95719    0.35616    1.000
    N5818    N        0.76596    0.00629    0.26975    1.000
    Si5819   Si       0.73979    0.97466    0.25951    1.000
    Si5820   Si       0.98247    0.95220    0.25661    1.000
    Si5821   Si       0.92232    0.95587    0.29992    1.000
    N5822    N        0.92168    0.98805    0.27123    1.000
    N5823    N        0.92153    0.96318    0.34261    1.000
    Si5824   Si       0.89241    0.99164    0.35796    1.000
    Si5825   Si       0.87604    0.00960    0.27773    1.000
    N5826    N        0.85620    0.97061    0.37355    1.000
    N5827    N        0.79059    0.97269    0.45183    1.000
    N5828    N        0.84771    0.99794    0.48862    1.000
    N5829    N        0.78800    0.96197    0.38608    1.000
    Si5830   Si       0.79917    0.99294    0.41399    1.000
    Si5831   Si       0.80782    0.00318    0.47538    1.000
    N5832    N        0.88153    0.96236    0.43851    1.000
    Si5833   Si       0.86973    0.00196    0.45056    1.000
    N5834    N        0.94890    0.97633    0.47110    1.000
    N5835    N        0.94127    0.96264    0.40517    1.000
    Si5836   Si       0.97438    0.99023    0.39352    1.000
    Si5837   Si       0.92448    0.95396    0.44366    1.000
    Si5838   Si       0.97852    0.00719    0.46785    1.000
    N5839    N        0.76797    0.97348    0.57501    1.000
    Si5840   Si       0.77481    0.96837    0.53160    1.000
    Si5841   Si       0.84906    0.97421    0.52500    1.000
    N5842    N        0.81649    0.98070    0.61493    1.000
    Si5843   Si       0.78309    0.00475    0.60538    1.000
    N5844    N        0.85180    0.00278    0.55776    1.000
    Si5845   Si       0.81214    0.95248    0.57981    1.000
    N5846    N        0.78803    0.00664    0.51715    1.000
    N5847    N        0.81254    0.94584    0.53578    1.000
    N5848    N        0.96879    0.95101    0.62162    1.000
    Si5849   Si       0.87459    0.97914    0.58969    1.000
    N5850    N        0.91748    0.97805    0.57602    1.000
    N5851    N        0.97688    0.00594    0.54939    1.000
    Si5852   Si       0.82400    0.97506    0.65785    1.000
    N5853    N        0.85255    0.95232    0.68576    1.000
    Si5854   Si       0.93800    0.97381    0.71880    1.000
    N5855    N        0.88136    0.98195    0.63238    1.000
    Si5856   Si       0.88999    0.95298    0.66260    1.000
    N5857    N        0.92753    0.97526    0.67557    1.000
    N5858    N        0.97202    0.00182    0.72264    1.000
    Si5859   Si       0.81478    0.96979    0.76457    1.000
    N5860    N        0.85417    0.98317    0.76012    1.000
    N5861    N        0.80667    0.95992    0.80535    1.000
    N5862    N        0.75044    0.00762    0.84524    1.000
    Si5863   Si       0.89056    0.98028    0.78291    1.000
    N5864    N        0.96323    0.96678    0.81439    1.000
    N5865    N        0.91854    0.99521    0.75223    1.000
    Si5866   Si       0.94673    0.00826    0.81712    1.000
    N5867    N        0.90290    0.00227    0.82002    1.000
    Si5868   Si       0.82292    0.99962    0.97455    1.000
    N5869    N        0.80576    0.97556    0.87805    1.000
    N5870    N        0.82574    0.99621    0.93087    1.000
    Si5871   Si       0.76089    0.97156    0.98795    1.000
    Si5872   Si       0.79667    0.96300    0.92056    1.000
    N5873    N        0.75273    0.97677    0.91706    1.000
    N5874    N        0.79084    0.94946    0.96590    1.000
    Si5875   Si       0.74509    0.00940    0.88863    1.000
    N5876    N        0.89909    0.97803    0.99515    1.000
    N5877    N        0.97694    0.00308    0.90865    1.000
    Si5878   Si       0.94347    0.98260    0.92764    1.000
    N5879    N        0.95985    0.97554    0.96897    1.000
