# CIF file generated by openbabel 3.1.1, see https://openbabel.org
data_I
_chemical_name_common '3.01-18.aims'
_cell_length_a 39.9733
_cell_length_b 39.9733
_cell_length_c 39.9733
_cell_angle_alpha 90
_cell_angle_beta 90
_cell_angle_gamma 90
loop_
    _atom_site_label
    _atom_site_type_symbol
    _atom_site_fract_x
    _atom_site_fract_y
    _atom_site_fract_z
    _atom_site_occupancy
    N0       N        0.06006    0.03276    0.03866    1.000
    Si1      Si       0.10063    0.03865    0.05036    1.000
    N2       N        0.10358    0.05464    0.08914    1.000
    N3       N        0.20557    0.02041    0.06290    1.000
    N4       N        0.12810    0.05897    0.02536    1.000
    Si5      Si       0.21067    0.05932    0.08006    1.000
    N6       N        0.15127    0.00706    0.10993    1.000
    N7       N        0.23390    0.01554    0.99696    1.000
    N8       N        0.03681    0.04210    0.18910    1.000
    Si9      Si       0.06778    0.06034    0.16392    1.000
    N10      N        0.09711    0.03066    0.15540    1.000
    Si11     Si       0.98825    0.01198    0.23481    1.000
    Si12     Si       0.18248    0.05733    0.15610    1.000
    N13      N        0.21347    0.05821    0.12447    1.000
    Si14     Si       0.12415    0.03870    0.12266    1.000
    N15      N        0.17105    0.02301    0.17856    1.000
    N16      N        0.20780    0.05384    0.23860    1.000
    Si17     Si       0.06860    0.03694    0.31890    1.000
    N18      N        0.04462    0.05874    0.34814    1.000
    Si19     Si       0.00931    0.04270    0.36150    1.000
    N20      N        0.10945    0.03454    0.33468    1.000
    N21      N        0.06049    0.06138    0.28474    1.000
    N22      N        0.15085    0.04091    0.27620    1.000
    Si23     Si       0.14389    0.01834    0.31404    1.000
    Si24     Si       0.22667    0.05794    0.30993    1.000
    N25      N        0.21746    0.01741    0.29162    1.000
    N26      N        0.22660    0.05058    0.35172    1.000
    Si27     Si       0.20953    0.01322    0.25033    1.000
    N28      N        0.00667    0.02084    0.39892    1.000
    Si29     Si       0.07171    0.03485    0.48349    1.000
    N30      N        0.05377    0.04719    0.44642    1.000
    Si31     Si       0.10763    0.03624    0.38059    1.000
    Si32     Si       0.04403    0.01343    0.42154    1.000
    N33      N        0.07333    0.01276    0.39252    1.000
    Si34     Si       0.23800    0.03322    0.43704    1.000
    N35      N        0.22822    0.01243    0.47504    1.000
    Si36     Si       0.16089    0.04835    0.42798    1.000
    N37      N        0.14034    0.01789    0.40397    1.000
    N38      N        0.20222    0.04854    0.41605    1.000
    N39      N        0.13990    0.03746    0.46554    1.000
    N40      N        0.04999    0.02335    0.51877    1.000
    N41      N        0.07991    0.05643    0.57673    1.000
    Si42     Si       0.05990    0.04042    0.61353    1.000
    Si43     Si       0.05897    0.06079    0.53874    1.000
    Si44     Si       0.98543    0.01400    0.59939    1.000
    N45      N        0.14263    0.04439    0.54157    1.000
    N46      N        0.20984    0.04888    0.52451    1.000
    Si47     Si       0.18264    0.02371    0.54503    1.000
    Si48     Si       0.22471    0.01353    0.61002    1.000
    Si49     Si       0.13212    0.05820    0.50203    1.000
    N50      N        0.13957    0.06242    0.60791    1.000
    N51      N        0.01481    0.03419    0.62615    1.000
    N52      N        0.04067    0.02933    0.69118    1.000
    Si53     Si       0.00416    0.01761    0.66899    1.000
    N54      N        0.20548    0.05703    0.70861    1.000
    Si55     Si       0.13710    0.00974    0.67829    1.000
    Si56     Si       0.19859    0.01440    0.71634    1.000
    Si57     Si       0.16324    0.03300    0.62848    1.000
    Si58     Si       0.22297    0.06189    0.66958    1.000
    N59      N        0.13942    0.05058    0.66866    1.000
    N60      N        0.20395    0.03811    0.63984    1.000
    Si61     Si       0.06530    0.02203    0.77576    1.000
    N62      N        0.02172    0.01779    0.77059    1.000
    N63      N        0.01272    0.05389    0.82191    1.000
    N64      N        0.08001    0.06051    0.77085    1.000
    Si65     Si       0.99716    0.05428    0.78035    1.000
    Si66     Si       0.03001    0.01656    0.83560    1.000
    N67      N        0.11370    0.02185    0.85874    1.000
    Si68     Si       0.23575    0.01117    0.77500    1.000
    N69      N        0.23153    0.02784    0.81363    1.000
    N70      N        0.13076    0.01824    0.79108    1.000
    N71      N        0.17676    0.04525    0.85629    1.000
    Si72     Si       0.12223    0.06099    0.78299    1.000
    Si73     Si       0.12920    0.06464    0.86244    1.000
    Si74     Si       0.20681    0.01448    0.84634    1.000
    N75      N        0.19451    0.01304    0.75913    1.000
    N76      N        0.04067    0.01677    0.87773    1.000
    N77      N        0.99741    0.04956    0.98532    1.000
    Si78     Si       0.01484    0.03168    0.90965    1.000
    Si79     Si       0.08327    0.05483    0.93103    1.000
    N80      N        0.08991    0.01351    0.92422    1.000
    N81      N        0.04020    0.05664    0.93594    1.000
    Si82     Si       0.99274    0.00793    0.97616    1.000
    N83      N        0.17245    0.03953    0.97816    1.000
    Si84     Si       0.12984    0.04117    0.98613    1.000
    N85      N        0.23846    0.05674    0.86949    1.000
    N86      N        0.07126    0.11236    0.06004    1.000
    N87      N        0.00078    0.09308    0.04140    1.000
    Si88     Si       0.07772    0.08828    0.09673    1.000
    Si89     Si       0.03759    0.11857    0.03202    1.000
    N90      N        0.10772    0.11543    0.11466    1.000
    Si91     Si       0.15829    0.08922    0.03346    1.000
    N92      N        0.17048    0.08037    0.07438    1.000
    Si93     Si       0.15137    0.10642    0.10434    1.000
    N94      N        0.19997    0.09252    0.01837    1.000
    N95      N        0.13738    0.12254    0.00899    1.000
    Si96     Si       0.23725    0.10949    0.03416    1.000
    N97      N        0.04938    0.07756    0.12708    1.000
    Si98     Si       0.01102    0.09447    0.13248    1.000
    N99      N        0.08799    0.09363    0.18246    1.000
    N100     N        0.04001    0.09846    0.23110    1.000
    Si101    Si       0.07903    0.11648    0.21901    1.000
    Si102    Si       0.01253    0.07485    0.20891    1.000
    N103     N        0.99538    0.09324    0.17301    1.000
    Si104    Si       0.23031    0.07463    0.20678    1.000
    Si105    Si       0.21099    0.11789    0.15208    1.000
    N106     N        0.14498    0.07360    0.13901    1.000
    N107     N        0.19540    0.08874    0.18435    1.000
    Si108    Si       0.12091    0.10676    0.15702    1.000
    Si109    Si       0.17486    0.12308    0.20515    1.000
    N110     N        0.16240    0.10789    0.24375    1.000
    Si111    Si       0.05351    0.09994    0.27365    1.000
    N112     N        0.09228    0.11571    0.26110    1.000
    N113     N        0.02354    0.12400    0.29661    1.000
    N114     N        0.07768    0.12598    0.33755    1.000
    N115     N        0.19563    0.08602    0.30133    1.000
    Si116    Si       0.18061    0.11654    0.32791    1.000
    N117     N        0.16926    0.09235    0.36371    1.000
    Si118    Si       0.17750    0.07301    0.26397    1.000
    Si119    Si       0.06428    0.09280    0.36377    1.000
    N120     N        0.10217    0.07780    0.38318    1.000
    N121     N        0.00355    0.09008    0.46118    1.000
    N122     N        0.03969    0.10400    0.39919    1.000
    Si123    Si       0.04240    0.08972    0.44080    1.000
    N124     N        0.06139    0.12167    0.46476    1.000
    N125     N        0.15176    0.09063    0.42708    1.000
    Si126    Si       0.20488    0.07583    0.38183    1.000
    N127     N        0.20585    0.10579    0.46919    1.000
    Si128    Si       0.16252    0.11390    0.46165    1.000
    Si129    Si       0.13669    0.10334    0.38964    1.000
    N130     N        0.22566    0.11114    0.40062    1.000
    N131     N        0.03510    0.09447    0.52252    1.000
    Si132    Si       0.07188    0.10959    0.50261    1.000
    Si133    Si       0.99834    0.07909    0.50239    1.000
    N134     N        0.08935    0.06876    0.50401    1.000
    N135     N        0.14005    0.11164    0.56721    1.000
    Si136    Si       0.19616    0.08851    0.50896    1.000
    N137     N        0.21549    0.11613    0.53624    1.000
    Si138    Si       0.12178    0.07072    0.57117    1.000
    N139     N        0.15188    0.09855    0.50138    1.000
    N140     N        0.07011    0.09639    0.71244    1.000
    N141     N        0.01927    0.09703    0.66834    1.000
    Si142    Si       0.05368    0.07156    0.67984    1.000
    N143     N        0.07821    0.06611    0.64454    1.000
    N144     N        0.17432    0.12139    0.70418    1.000
    N145     N        0.11922    0.12415    0.63868    1.000
    Si146    Si       0.17912    0.08551    0.72904    1.000
    N147     N        0.23109    0.10127    0.65536    1.000
    Si148    Si       0.11955    0.07854    0.64393    1.000
    Si149    Si       0.05902    0.09531    0.75588    1.000
    N150     N        0.01700    0.09227    0.76827    1.000
    Si151    Si       0.09846    0.11560    0.81799    1.000
    N152     N        0.06915    0.11766    0.84851    1.000
    Si153    Si       0.99509    0.12114    0.79253    1.000
    N154     N        0.00567    0.11871    0.86321    1.000
    N155     N        0.07874    0.12534    0.78127    1.000
    Si156    Si       0.98782    0.08045    0.84939    1.000
    N157     N        0.12012    0.08088    0.82277    1.000
    N158     N        0.20934    0.10011    0.75976    1.000
    N159     N        0.21388    0.09638    0.82808    1.000
    N160     N        0.14418    0.07790    0.75194    1.000
    Si161    Si       0.19797    0.08238    0.86853    1.000
    Si162    Si       0.01995    0.08176    0.96444    1.000
    N163     N        0.09646    0.07598    0.89486    1.000
    N164     N        0.04030    0.11262    0.98629    1.000
    Si165    Si       0.08071    0.11736    0.89090    1.000
    N166     N        0.04470    0.12152    0.91702    1.000
    Si167    Si       0.00216    0.12201    0.90635    1.000
    N168     N        0.10670    0.06929    0.96426    1.000
    Si169    Si       0.17055    0.11862    0.91314    1.000
    N170     N        0.23490    0.07244    0.95682    1.000
    N171     N        0.20983    0.11225    0.89994    1.000
    Si172    Si       0.19611    0.07725    0.97641    1.000
    N173     N        0.15543    0.09557    0.88072    1.000
    N174     N        0.16774    0.10168    0.95373    1.000
    Si175    Si       0.12685    0.10634    0.97132    1.000
    Si176    Si       0.02524    0.16603    0.08829    1.000
    Si177    Si       0.09882    0.14319    0.07909    1.000
    N178     N        0.02262    0.15945    0.04651    1.000
    N179     N        0.06782    0.17179    0.09907    1.000
    N180     N        0.10031    0.17447    0.04244    1.000
    N181     N        0.00924    0.13033    0.10481    1.000
    Si182    Si       0.99514    0.18452    0.02399    1.000
    Si183    Si       0.13934    0.16060    0.03219    1.000
    Si184    Si       0.17774    0.16477    0.09846    1.000
    N185     N        0.14608    0.14465    0.07414    1.000
    N186     N        0.19120    0.12841    0.11739    1.000
    N187     N        0.08150    0.15721    0.20879    1.000
    N188     N        0.03095    0.17715    0.16276    1.000
    N189     N        0.01835    0.18087    0.23368    1.000
    N190     N        0.20553    0.14987    0.18314    1.000
    N191     N        0.14112    0.13662    0.18036    1.000
    N192     N        0.20544    0.17667    0.24137    1.000
    Si193    Si       0.11953    0.17211    0.19651    1.000
    Si194    Si       0.04452    0.14937    0.32385    1.000
    N195     N        0.02024    0.15466    0.35929    1.000
    Si196    Si       0.11406    0.14565    0.33930    1.000
    N197     N        0.21266    0.14069    0.34535    1.000
    Si198    Si       0.13347    0.12978    0.26664    1.000
    N199     N        0.14493    0.13309    0.30981    1.000
    N200     N        0.13552    0.16723    0.24610    1.000
    N201     N        0.02849    0.16799    0.42869    1.000
    Si202    Si       0.01530    0.13966    0.39756    1.000
    Si203    Si       0.03520    0.15808    0.47017    1.000
    N204     N        0.14949    0.15300    0.45040    1.000
    Si205    Si       0.23535    0.14938    0.38017    1.000
    Si206    Si       0.13054    0.17203    0.41570    1.000
    N207     N        0.12888    0.14427    0.38120    1.000
    N208     N        0.03836    0.15813    0.55542    1.000
    N209     N        0.09715    0.13809    0.52302    1.000
    Si210    Si       0.07136    0.17530    0.52927    1.000
    Si211    Si       0.04206    0.17502    0.59510    1.000
    Si212    Si       0.00253    0.13718    0.53944    1.000
    N213     N        0.08408    0.17166    0.60681    1.000
    N214     N        0.99994    0.15448    0.49642    1.000
    N215     N        0.16786    0.16124    0.51528    1.000
    Si216    Si       0.20726    0.15826    0.53007    1.000
    N217     N        0.14854    0.17305    0.58852    1.000
    Si218    Si       0.14598    0.13190    0.60558    1.000
    N219     N        0.21376    0.17437    0.56869    1.000
    Si220    Si       0.13899    0.13032    0.52791    1.000
    N221     N        0.23806    0.17445    0.50369    1.000
    Si222    Si       0.19130    0.18088    0.60547    1.000
    N223     N        0.01774    0.14869    0.62042    1.000
    Si224    Si       0.07850    0.14136    0.71346    1.000
    Si225    Si       0.09613    0.16301    0.64796    1.000
    N226     N        0.06330    0.15316    0.67343    1.000
    Si227    Si       0.02434    0.14020    0.66229    1.000
    N228     N        0.99721    0.15936    0.68814    1.000
    N229     N        0.04895    0.16078    0.73728    1.000
    Si230    Si       0.01756    0.18201    0.71759    1.000
    Si231    Si       0.16208    0.15141    0.73394    1.000
    N232     N        0.18255    0.14373    0.63169    1.000
    N233     N        0.11900    0.15425    0.72319    1.000
    Si234    Si       0.20122    0.13290    0.66923    1.000
    N235     N        0.22290    0.16200    0.69485    1.000
    N236     N        0.02238    0.15323    0.80334    1.000
    Si237    Si       0.03377    0.14562    0.84535    1.000
    Si238    Si       0.05834    0.16446    0.78010    1.000
    Si239    Si       0.09431    0.17955    0.85581    1.000
    Si240    Si       0.99226    0.18372    0.78779    1.000
    N241     N        0.05076    0.18371    0.85455    1.000
    N242     N        0.11367    0.15743    0.82284    1.000
    N243     N        0.22837    0.15930    0.80835    1.000
    N244     N        0.16978    0.14871    0.77694    1.000
    Si245    Si       0.14530    0.17623    0.80200    1.000
    Si246    Si       0.20564    0.12451    0.79544    1.000
    Si247    Si       0.05613    0.13796    0.95516    1.000
    N248     N        0.10080    0.15440    0.89009    1.000
    N249     N        0.10073    0.13565    0.95271    1.000
    N250     N        0.04597    0.18200    0.95362    1.000
    Si251    Si       0.00261    0.18350    0.95018    1.000
    Si252    Si       0.12051    0.16484    0.92690    1.000
    N253     N        0.16209    0.16024    0.91525    1.000
    N254     N        0.22804    0.17958    0.89504    1.000
    Si255    Si       0.08398    0.20331    0.07133    1.000
    N256     N        0.00604    0.22392    0.00701    1.000
    N257     N        0.00103    0.19867    0.10482    1.000
    N258     N        0.05097    0.22989    0.06234    1.000
    Si259    Si       0.04273    0.24206    0.01942    1.000
    N260     N        0.12019    0.21651    0.09280    1.000
    Si261    Si       0.19617    0.21307    0.04288    1.000
    N262     N        0.22946    0.22027    0.01386    1.000
    N263     N        0.16622    0.18994    0.01867    1.000
    N264     N        0.20769    0.18193    0.06972    1.000
    Si265    Si       0.99598    0.20249    0.14793    1.000
    Si266    Si       0.06690    0.18882    0.14046    1.000
    N267     N        0.06004    0.22582    0.19770    1.000
    N268     N        0.05320    0.23049    0.13227    1.000
    N269     N        0.10562    0.18843    0.15771    1.000
    N270     N        0.99946    0.24189    0.16650    1.000
    Si271    Si       0.04756    0.18422    0.20371    1.000
    Si272    Si       0.13260    0.21176    0.13495    1.000
    Si273    Si       0.16640    0.19551    0.24197    1.000
    Si274    Si       0.18759    0.18828    0.17119    1.000
    N275     N        0.22075    0.21781    0.17405    1.000
    N276     N        0.17075    0.19119    0.13181    1.000
    N277     N        0.15666    0.20107    0.19825    1.000
    Si278    Si       0.07705    0.21830    0.30356    1.000
    Si279    Si       0.01827    0.20413    0.27107    1.000
    N280     N        0.06427    0.22359    0.26186    1.000
    Si281    Si       0.01644    0.19808    0.34932    1.000
    N282     N        0.03858    0.19188    0.31058    1.000
    N283     N        0.10410    0.18551    0.32498    1.000
    N284     N        0.10737    0.23882    0.36679    1.000
    N285     N        0.23256    0.20924    0.30005    1.000
    Si286    Si       0.19658    0.23245    0.30267    1.000
    Si287    Si       0.12921    0.21953    0.33501    1.000
    N288     N        0.17508    0.23283    0.26431    1.000
    N289     N        0.17159    0.21870    0.33460    1.000
    Si290    Si       0.23364    0.20548    0.25536    1.000
    N291     N        0.11675    0.23972    0.29945    1.000
    N292     N        0.05550    0.19223    0.49123    1.000
    N293     N        0.03634    0.21513    0.38087    1.000
    Si294    Si       0.05297    0.20296    0.41766    1.000
    Si295    Si       0.09533    0.22106    0.45999    1.000
    Si296    Si       0.03116    0.22943    0.48454    1.000
    N297     N        0.05100    0.23711    0.44763    1.000
    N298     N        0.09389    0.19147    0.42681    1.000
    N299     N        0.99076    0.21928    0.47214    1.000
    N300     N        0.15692    0.20808    0.40826    1.000
    N301     N        0.12561    0.21142    0.48799    1.000
    N302     N        0.22774    0.18877    0.40036    1.000
    Si303    Si       0.22776    0.21361    0.48980    1.000
    Si304    Si       0.19702    0.21402    0.42166    1.000
    N305     N        0.19457    0.20356    0.46429    1.000
    Si306    Si       0.15906    0.18485    0.47958    1.000
    N307     N        0.09319    0.20710    0.54981    1.000
    N308     N        0.03472    0.21553    0.60605    1.000
    Si309    Si       0.11399    0.19742    0.58625    1.000
    Si310    Si       0.11563    0.23542    0.52280    1.000
    N311     N        0.12122    0.23288    0.61037    1.000
    N312     N        0.19242    0.23072    0.59970    1.000
    N313     N        0.20662    0.23306    0.52279    1.000
    Si314    Si       0.21938    0.23889    0.56405    1.000
    N315     N        0.09618    0.22394    0.73169    1.000
    N316     N        0.02858    0.22194    0.70500    1.000
    Si317    Si       0.99142    0.23674    0.72629    1.000
    Si318    Si       0.11415    0.23939    0.65181    1.000
    Si319    Si       0.20989    0.20327    0.70052    1.000
    Si320    Si       0.22760    0.23296    0.63160    1.000
    N321     N        0.11468    0.19710    0.66880    1.000
    N322     N        0.20534    0.23359    0.66985    1.000
    N323     N        0.16920    0.19453    0.72054    1.000
    Si324    Si       0.12249    0.19561    0.71122    1.000
    N325     N        0.23161    0.18916    0.62575    1.000
    N326     N        0.06534    0.20609    0.79183    1.000
    Si327    Si       0.04175    0.21736    0.82857    1.000
    Si328    Si       0.09846    0.22841    0.77472    1.000
    N329     N        0.99995    0.21532    0.81688    1.000
    N330     N        0.99047    0.19965    0.74733    1.000
    N331     N        0.11104    0.22028    0.85783    1.000
    N332     N        0.13912    0.21296    0.77974    1.000
    Si333    Si       0.20830    0.19912    0.81148    1.000
    N334     N        0.20649    0.22145    0.77518    1.000
    Si335    Si       0.15373    0.22629    0.85678    1.000
    N336     N        0.21992    0.23043    0.84010    1.000
    N337     N        0.16992    0.19120    0.83485    1.000
    Si338    Si       0.17093    0.22711    0.75358    1.000
    Si339    Si       0.07828    0.21180    0.95466    1.000
    N340     N        0.07619    0.23584    0.99167    1.000
    N341     N        0.08204    0.23683    0.92009    1.000
    Si342    Si       0.16045    0.20606    0.97856    1.000
    Si343    Si       0.23052    0.22648    0.97023    1.000
    N344     N        0.17625    0.22627    0.89597    1.000
    N345     N        0.19715    0.20048    0.95677    1.000
    N346     N        0.12075    0.19841    0.95649    1.000
    Si347    Si       0.19219    0.19061    0.91445    1.000
    N348     N        0.04079    0.28428    0.02459    1.000
    N349     N        0.04270    0.28300    0.09670    1.000
    Si350    Si       0.06777    0.28222    0.06004    1.000
    N351     N        0.10461    0.26465    0.04566    1.000
    Si352    Si       0.10960    0.26004    0.00309    1.000
    Si353    Si       0.02733    0.23978    0.09889    1.000
    Si354    Si       0.13668    0.25317    0.07522    1.000
    Si355    Si       0.20399    0.27739    0.08217    1.000
    N356     N        0.13585    0.28885    0.09960    1.000
    N357     N        0.17884    0.24339    0.06770    1.000
    N358     N        0.04681    0.29544    0.17020    1.000
    Si359    Si       0.04123    0.25307    0.16865    1.000
    N360     N        0.05748    0.28370    0.23837    1.000
    Si361    Si       0.07744    0.24761    0.22914    1.000
    N362     N        0.19989    0.28723    0.12600    1.000
    Si363    Si       0.15087    0.24520    0.19663    1.000
    N364     N        0.23728    0.24370    0.23977    1.000
    N365     N        0.12075    0.24915    0.22847    1.000
    N366     N        0.14511    0.24815    0.15450    1.000
    Si367    Si       0.22468    0.25290    0.19880    1.000
    N368     N        0.18274    0.27256    0.20861    1.000
    Si369    Si       0.15840    0.28618    0.13747    1.000
    Si370    Si       0.04425    0.27155    0.28033    1.000
    N371     N        0.05586    0.25317    0.31992    1.000
    Si372    Si       0.07559    0.26873    0.35614    1.000
    N373     N        0.00434    0.24564    0.27350    1.000
    N374     N        0.20993    0.27433    0.29619    1.000
    Si375    Si       0.13797    0.25564    0.26687    1.000
    N376     N        0.22471    0.28068    0.36135    1.000
    Si377    Si       0.19476    0.27972    0.25443    1.000
    N378     N        0.15502    0.29638    0.26860    1.000
    N379     N        0.04818    0.28610    0.38512    1.000
    N380     N        0.00104    0.28289    0.42760    1.000
    Si381    Si       0.04403    0.27640    0.42799    1.000
    Si382    Si       0.10129    0.28433    0.46661    1.000
    Si383    Si       0.00470    0.29623    0.38294    1.000
    N384     N        0.11317    0.25395    0.43861    1.000
    Si385    Si       0.21872    0.27310    0.46112    1.000
    N386     N        0.15313    0.27987    0.38737    1.000
    Si387    Si       0.13241    0.24388    0.40075    1.000
    N388     N        0.18426    0.28195    0.48327    1.000
    N389     N        0.20623    0.25655    0.42222    1.000
    Si390    Si       0.19555    0.28658    0.39255    1.000
    N391     N        0.07195    0.27410    0.57261    1.000
    Si392    Si       0.04173    0.25632    0.59787    1.000
    Si393    Si       0.06034    0.27807    0.53121    1.000
    N394     N        0.00628    0.27522    0.57939    1.000
    N395     N        0.02853    0.25557    0.51755    1.000
    N396     N        0.09391    0.26531    0.50329    1.000
    Si397    Si       0.99227    0.27182    0.53844    1.000
    Si398    Si       0.18056    0.27429    0.52871    1.000
    Si399    Si       0.15523    0.25419    0.59157    1.000
    N400     N        0.21416    0.28233    0.56041    1.000
    N401     N        0.14713    0.25079    0.54957    1.000
    N402     N        0.14996    0.29729    0.59683    1.000
    N403     N        0.04041    0.29209    0.62583    1.000
    N404     N        0.08155    0.25789    0.67218    1.000
    N405     N        0.99488    0.27695    0.71297    1.000
    Si406    Si       0.06628    0.29623    0.66059    1.000
    N407     N        0.05864    0.27771    0.73984    1.000
    Si408    Si       0.06472    0.24471    0.71022    1.000
    Si409    Si       0.02658    0.30228    0.72545    1.000
    Si410    Si       0.18181    0.26505    0.68610    1.000
    N411     N        0.16951    0.26203    0.72880    1.000
    N412     N        0.14748    0.26808    0.66033    1.000
    N413     N        0.20648    0.30281    0.68665    1.000
    N414     N        0.09972    0.26759    0.79506    1.000
    N415     N        0.04715    0.25165    0.85765    1.000
    Si416    Si       0.08546    0.30006    0.76911    1.000
    Si417    Si       0.01488    0.28048    0.86781    1.000
    Si418    Si       0.12476    0.28456    0.82853    1.000
    N419     N        0.16087    0.26560    0.83901    1.000
    Si420    Si       0.20356    0.27292    0.84464    1.000
    N421     N        0.22973    0.29392    0.82020    1.000
    N422     N        0.23490    0.28188    0.74936    1.000
    N423     N        0.10601    0.28788    0.86854    1.000
    Si424    Si       0.08592    0.24880    0.87826    1.000
    N425     N        0.99342    0.27571    0.90514    1.000
    N426     N        0.99185    0.28277    0.97351    1.000
    N427     N        0.21616    0.26330    0.95079    1.000
    Si428    Si       0.15510    0.28716    0.96836    1.000
    N429     N        0.20898    0.29057    0.88324    1.000
    N430     N        0.15081    0.24848    0.98893    1.000
    N431     N        0.15441    0.28473    0.92653    1.000
    Si432    Si       0.19024    0.26419    0.91169    1.000
    N433     N        0.11519    0.29958    0.98450    1.000
    N434     N        0.08135    0.32445    0.06317    1.000
    N435     N        0.01505    0.34730    0.01430    1.000
    Si436    Si       0.05465    0.34945    0.03807    1.000
    Si437    Si       0.11051    0.32325    0.09477    1.000
    Si438    Si       0.00663    0.30416    0.00881    1.000
    N439     N        0.07701    0.35441    0.00054    1.000
    N440     N        0.14682    0.34736    0.02553    1.000
    Si441    Si       0.18698    0.33000    0.01703    1.000
    N442     N        0.13922    0.35479    0.09235    1.000
    N443     N        0.19625    0.30344    0.04958    1.000
    N444     N        0.01913    0.34496    0.12025    1.000
    Si445    Si       0.04893    0.31288    0.12950    1.000
    Si446    Si       0.04741    0.31541    0.21156    1.000
    N447     N        0.08810    0.32840    0.13057    1.000
    N448     N        0.07850    0.34422    0.20109    1.000
    N449     N        0.01813    0.34321    0.23478    1.000
    Si450    Si       0.10769    0.33451    0.16914    1.000
    N451     N        0.15706    0.34643    0.22339    1.000
    N452     N        0.14365    0.31100    0.16999    1.000
    N453     N        0.20547    0.33821    0.16910    1.000
    Si454    Si       0.17672    0.31846    0.19680    1.000
    N455     N        0.21879    0.31496    0.24101    1.000
    Si456    Si       0.23211    0.30768    0.14832    1.000
    Si457    Si       0.08368    0.33222    0.31574    1.000
    Si458    Si       0.01473    0.33670    0.27830    1.000
    N459     N        0.04961    0.31487    0.29396    1.000
    N460     N        0.11237    0.35280    0.28926    1.000
    N461     N        0.09920    0.30479    0.34472    1.000
    Si462    Si       0.15015    0.33973    0.26686    1.000
    N463     N        0.17658    0.32220    0.34436    1.000
    Si464    Si       0.22413    0.34823    0.27024    1.000
    Si465    Si       0.13780    0.31113    0.36225    1.000
    Si466    Si       0.21411    0.30497    0.32647    1.000
    N467     N        0.07407    0.35476    0.40521    1.000
    N468     N        0.00587    0.33980    0.37898    1.000
    Si469    Si       0.08992    0.34243    0.44407    1.000
    N470     N        0.99860    0.33220    0.47452    1.000
    Si471    Si       0.04162    0.33221    0.48212    1.000
    N472     N        0.06322    0.30481    0.45335    1.000
    N473     N        0.13935    0.34782    0.38657    1.000
    Si474    Si       0.22151    0.34200    0.44393    1.000
    Si475    Si       0.16364    0.32208    0.48504    1.000
    N476     N        0.20262    0.32731    0.40870    1.000
    Si477    Si       0.18206    0.35060    0.37928    1.000
    N478     N        0.18922    0.35473    0.47007    1.000
    N479     N        0.12524    0.32153    0.46380    1.000
    N480     N        0.05202    0.32047    0.52208    1.000
    N481     N        0.10140    0.33573    0.56898    1.000
    N482     N        0.04213    0.34402    0.58832    1.000
    Si483    Si       0.01017    0.31250    0.60053    1.000
    Si484    Si       0.07496    0.31180    0.59822    1.000
    Si485    Si       0.06595    0.35073    0.54965    1.000
    Si486    Si       0.14319    0.32615    0.56443    1.000
    N487     N        0.15822    0.31483    0.52721    1.000
    N488     N        0.21810    0.34358    0.60946    1.000
    Si489    Si       0.23388    0.30591    0.59301    1.000
    N490     N        0.09787    0.31838    0.63655    1.000
    N491     N        0.04758    0.32203    0.69165    1.000
    N492     N        0.10375    0.35966    0.69630    1.000
    Si493    Si       0.16434    0.30294    0.73936    1.000
    N494     N        0.15613    0.34092    0.64746    1.000
    Si495    Si       0.18559    0.33988    0.67908    1.000
    Si496    Si       0.11278    0.35801    0.65374    1.000
    N497     N        0.16634    0.34085    0.71725    1.000
    Si498    Si       0.12746    0.35108    0.73095    1.000
    Si499    Si       0.13913    0.30300    0.63606    1.000
    N500     N        0.06744    0.33946    0.78215    1.000
    N501     N        0.00570    0.34792    0.81788    1.000
    Si502    Si       0.02640    0.35650    0.78143    1.000
    Si503    Si       0.02845    0.35748    0.85504    1.000
    Si504    Si       0.09455    0.35702    0.80949    1.000
    N505     N        0.00861    0.33397    0.74740    1.000
    N506     N        0.23821    0.35295    0.78210    1.000
    Si507    Si       0.22563    0.31213    0.78104    1.000
    N508     N        0.18237    0.31511    0.77662    1.000
    Si509    Si       0.15683    0.34659    0.79619    1.000
    N510     N        0.12591    0.32746    0.81800    1.000
    N511     N        0.12043    0.31040    0.74558    1.000
    N512     N        0.03579    0.31692    0.87247    1.000
    Si513    Si       0.07817    0.32080    0.87460    1.000
    N514     N        0.02767    0.33499    0.94377    1.000
    N515     N        0.10005    0.33512    0.90833    1.000
    Si516    Si       0.99618    0.30578    0.93603    1.000
    Si517    Si       0.11834    0.34269    0.99366    1.000
    Si518    Si       0.22392    0.30364    0.96459    1.000
    N519     N        0.18353    0.32153    0.97474    1.000
    N520     N        0.16440    0.34542    0.89921    1.000
    Si521    Si       0.13358    0.31098    0.89836    1.000
    Si522    Si       0.23558    0.32494    0.89195    1.000
    Si523    Si       0.17234    0.35043    0.94198    1.000
    N524     N        0.13422    0.36433    0.95740    1.000
    N525     N        0.04977    0.38311    0.06674    1.000
    Si526    Si       0.01807    0.38089    0.09578    1.000
    Si527    Si       0.08439    0.41158    0.07074    1.000
    N528     N        0.10715    0.41129    0.10792    1.000
    N529     N        0.01411    0.41874    0.11806    1.000
    N530     N        0.11495    0.40372    0.04272    1.000
    Si531    Si       0.20488    0.39908    0.02765    1.000
    N532     N        0.18233    0.39755    0.06357    1.000
    Si533    Si       0.14546    0.37602    0.05548    1.000
    Si534    Si       0.19841    0.41472    0.09789    1.000
    N535     N        0.17220    0.41626    0.00179    1.000
    N536     N        0.21623    0.35957    0.02351    1.000
    N537     N        0.05194    0.40519    0.23480    1.000
    Si538    Si       0.01253    0.38567    0.22628    1.000
    N539     N        0.00558    0.39244    0.18402    1.000
    Si540    Si       0.07905    0.39016    0.20461    1.000
    N541     N        0.06931    0.41149    0.16924    1.000
    Si542    Si       0.20394    0.38223    0.16526    1.000
    N543     N        0.13056    0.37223    0.16309    1.000
    N544     N        0.11660    0.40495    0.21839    1.000
    N545     N        0.18461    0.40371    0.19910    1.000
    Si546    Si       0.14749    0.38319    0.20051    1.000
    Si547    Si       0.13987    0.38405    0.12354    1.000
    N548     N        0.18178    0.39174    0.12980    1.000
    N549     N        0.01228    0.37279    0.30073    1.000
    Si550    Si       0.03641    0.40297    0.32516    1.000
    Si551    Si       0.10581    0.39390    0.30310    1.000
    N552     N        0.03051    0.40405    0.36968    1.000
    N553     N        0.06792    0.41906    0.29984    1.000
    N554     N        0.07219    0.36619    0.34399    1.000
    N555     N        0.12777    0.39658    0.34146    1.000
    Si556    Si       0.17746    0.40951    0.28664    1.000
    N557     N        0.18574    0.36667    0.28025    1.000
    Si558    Si       0.10562    0.37344    0.37451    1.000
    N559     N        0.06717    0.36431    0.47275    1.000
    N560     N        0.10262    0.41364    0.39529    1.000
    Si561    Si       0.07205    0.40175    0.49110    1.000
    Si562    Si       0.04262    0.36180    0.37633    1.000
    N563     N        0.22824    0.40607    0.49195    1.000
    Si564    Si       0.18746    0.39665    0.48200    1.000
    N565     N        0.21216    0.38230    0.37111    1.000
    N566     N        0.07326    0.39449    0.53550    1.000
    Si567    Si       0.04232    0.37956    0.61130    1.000
    N568     N        0.00286    0.37803    0.52461    1.000
    N569     N        0.00181    0.39386    0.60229    1.000
    Si570    Si       0.00798    0.41769    0.51055    1.000
    N571     N        0.05777    0.42094    0.60262    1.000
    Si572    Si       0.16995    0.40223    0.55508    1.000
    N573     N        0.15733    0.40090    0.51335    1.000
    N574     N        0.16281    0.36282    0.57491    1.000
    Si575    Si       0.17794    0.36047    0.61495    1.000
    N576     N        0.06482    0.37670    0.64643    1.000
    N577     N        0.04154    0.39577    0.70791    1.000
    Si578    Si       0.00538    0.41194    0.68853    1.000
    Si579    Si       0.08322    0.41690    0.63945    1.000
    Si580    Si       0.06004    0.36207    0.68899    1.000
    N581     N        0.98418    0.38274    0.66920    1.000
    N582     N        0.18962    0.40220    0.61962    1.000
    N583     N        0.21110    0.37301    0.67406    1.000
    N584     N        0.12144    0.39867    0.63872    1.000
    Si585    Si       0.23214    0.37924    0.63470    1.000
    N586     N        0.02112    0.39770    0.77033    1.000
    Si587    Si       0.08779    0.39970    0.85688    1.000
    N588     N        0.10865    0.40056    0.81864    1.000
    N589     N        0.07323    0.35809    0.85002    1.000
    N590     N        0.13244    0.37224    0.76888    1.000
    Si591    Si       0.21947    0.38433    0.80589    1.000
    Si592    Si       0.12203    0.41289    0.77872    1.000
    N593     N        0.18342    0.36578    0.82243    1.000
    Si594    Si       0.18290    0.36940    0.86704    1.000
    N595     N        0.22148    0.41846    0.77672    1.000
    Si596    Si       0.04311    0.36582    0.97236    1.000
    N597     N        0.01400    0.38608    0.88308    1.000
    N598     N        0.07216    0.39229    0.95074    1.000
    N599     N        0.00738    0.39325    0.95683    1.000
    Si600    Si       0.00167    0.36919    0.92301    1.000
    Si601    Si       0.10195    0.37233    0.92815    1.000
    N602     N        0.11180    0.39783    0.89398    1.000
    N603     N        0.20377    0.38252    0.95090    1.000
    N604     N        0.22542    0.36730    0.88269    1.000
    N605     N        0.17570    0.41424    0.86881    1.000
    N606     N        0.07414    0.45316    0.06172    1.000
    N607     N        0.00676    0.45851    0.05754    1.000
    Si608    Si       0.04183    0.45958    0.03439    1.000
    N609     N        0.04317    0.43063    0.00311    1.000
    Si610    Si       0.13547    0.43155    0.01724    1.000
    N611     N        0.18737    0.45643    0.09918    1.000
    N612     N        0.14683    0.47056    0.03353    1.000
    N613     N        0.23627    0.42698    0.03233    1.000
    Si614    Si       0.09597    0.43568    0.14303    1.000
    N615     N        0.01697    0.46018    0.17383    1.000
    N616     N        0.07349    0.47028    0.13109    1.000
    Si617    Si       0.02771    0.42026    0.15929    1.000
    Si618    Si       0.16422    0.47045    0.17670    1.000
    Si619    Si       0.12964    0.43739    0.24017    1.000
    N620     N        0.13437    0.44809    0.15794    1.000
    N621     N        0.15540    0.46747    0.21895    1.000
    Si622    Si       0.20951    0.43631    0.21420    1.000
    N623     N        0.20728    0.46758    0.18336    1.000
    Si624    Si       0.05610    0.43846    0.26339    1.000
    N625     N        0.09634    0.46472    0.25847    1.000
    N626     N        0.00088    0.43447    0.31365    1.000
    Si627    Si       0.99625    0.47536    0.32812    1.000
    N628     N        0.03016    0.47129    0.24694    1.000
    N629     N        0.00859    0.47408    0.37022    1.000
    N630     N        0.11974    0.46419    0.33842    1.000
    Si631    Si       0.11906    0.46058    0.29592    1.000
    N632     N        0.20297    0.43227    0.25954    1.000
    N633     N        0.18870    0.43020    0.32263    1.000
    Si634    Si       0.19459    0.47288    0.31160    1.000
    Si635    Si       0.12698    0.43342    0.36571    1.000
    Si636    Si       0.19997    0.42354    0.36458    1.000
    N637     N        0.23676    0.47492    0.29791    1.000
    N638     N        0.13510    0.41848    0.28073    1.000
    N639     N        0.05035    0.45133    0.42204    1.000
    Si640    Si       0.09311    0.43876    0.42812    1.000
    Si641    Si       0.01940    0.43958    0.39397    1.000
    Si642    Si       0.04006    0.46552    0.46275    1.000
    N643     N        0.03714    0.42889    0.48385    1.000
    N644     N        0.10136    0.42761    0.46903    1.000
    Si645    Si       0.16228    0.45745    0.42264    1.000
    N646     N        0.17093    0.43227    0.45845    1.000
    N647     N        0.22717    0.45532    0.37810    1.000
    Si648    Si       0.14028    0.43459    0.48912    1.000
    N649     N        0.16512    0.43283    0.38819    1.000
    N650     N        0.12189    0.47165    0.42273    1.000
    N651     N        0.08466    0.46114    0.55885    1.000
    Si652    Si       0.05848    0.42679    0.56031    1.000
    N653     N        0.01791    0.43550    0.54894    1.000
    Si654    Si       0.01894    0.44126    0.61657    1.000
    Si655    Si       0.23862    0.43036    0.52575    1.000
    Si656    Si       0.12724    0.46228    0.55882    1.000
    Si657    Si       0.21524    0.43205    0.59816    1.000
    N658     N        0.20258    0.47158    0.60866    1.000
    N659     N        0.14313    0.42826    0.58026    1.000
    N660     N        0.14182    0.46746    0.51877    1.000
    N661     N        0.20843    0.42396    0.55564    1.000
    Si662    Si       0.00276    0.47107    0.73120    1.000
    N663     N        0.02096    0.44010    0.65890    1.000
    N664     N        0.04561    0.46049    0.72411    1.000
    Si665    Si       0.04997    0.46686    0.67937    1.000
    N666     N        0.08809    0.45249    0.66444    1.000
    Si667    Si       0.08377    0.46813    0.74424    1.000
    Si668    Si       0.12311    0.47692    0.67467    1.000
    Si669    Si       0.15258    0.42521    0.62555    1.000
    Si670    Si       0.15772    0.46936    0.74055    1.000
    N671     N        0.11912    0.47650    0.72092    1.000
    Si672    Si       0.22559    0.42632    0.73561    1.000
    N673     N        0.15509    0.45985    0.65201    1.000
    N674     N        0.19129    0.45018    0.72193    1.000
    N675     N        0.08624    0.42748    0.75856    1.000
    N676     N        0.00777    0.47490    0.77397    1.000
    N677     N        0.05997    0.43184    0.86520    1.000
    Si678    Si       0.04813    0.41858    0.74269    1.000
    N679     N        0.15187    0.44431    0.77574    1.000
    N680     N        0.20198    0.46545    0.82469    1.000
    Si681    Si       0.20278    0.44781    0.86459    1.000
    Si682    Si       0.23768    0.44605    0.80769    1.000
    Si683    Si       0.16898    0.47715    0.80101    1.000
    Si684    Si       0.01657    0.43044    0.87578    1.000
    N685     N        0.10763    0.45117    0.99053    1.000
    N686     N        0.06721    0.45891    0.93480    1.000
    Si687    Si       0.07954    0.45960    0.89321    1.000
    Si688    Si       0.07113    0.43464    0.97079    1.000
    N689     N        0.01041    0.46441    0.90328    1.000
    Si690    Si       0.00496    0.42408    0.98798    1.000
    N691     N        0.15941    0.43692    0.93253    1.000
    N692     N        0.12068    0.46324    0.87989    1.000
    Si693    Si       0.14175    0.42962    0.89284    1.000
    Si694    Si       0.18235    0.47653    0.93491    1.000
    N695     N        0.21525    0.45067    0.95738    1.000
    Si696    Si       0.18545    0.41912    0.96119    1.000
    Si697    Si       0.23621    0.45427    0.99880    1.000
    N698     N        0.07102    0.52282    0.07102    1.000
    N699     N        0.05004    0.49582    0.01091    1.000
    Si700    Si       0.07420    0.52674    0.02747    1.000
    Si701    Si       0.08494    0.48502    0.09013    1.000
    N702     N        0.11387    0.52758    0.01113    1.000
    N703     N        0.18959    0.51321    0.07505    1.000
    N704     N        0.12648    0.49222    0.09831    1.000
    Si705    Si       0.21621    0.48874    0.09944    1.000
    Si706    Si       0.15913    0.48031    0.07406    1.000
    N707     N        0.23110    0.49495    0.00859    1.000
    Si708    Si       0.13046    0.49053    0.99636    1.000
    Si709    Si       0.02946    0.48563    0.20588    1.000
    N710     N        0.07070    0.49785    0.19922    1.000
    N711     N        0.01034    0.52478    0.19747    1.000
    Si712    Si       0.07328    0.50414    0.15652    1.000
    N713     N        0.04373    0.52825    0.13525    1.000
    Si714    Si       0.08773    0.50292    0.23966    1.000
    N715     N        0.17085    0.50861    0.15476    1.000
    N716     N        0.23570    0.50787    0.12947    1.000
    Si717    Si       0.14051    0.52286    0.12853    1.000
    Si718    Si       0.21436    0.50704    0.16860    1.000
    N719     N        0.02250    0.50516    0.30854    1.000
    Si720    Si       0.01841    0.50914    0.26681    1.000
    N721     N        0.05666    0.52998    0.25625    1.000
    N722     N        0.18156    0.49479    0.34708    1.000
    Si723    Si       0.14022    0.50344    0.33928    1.000
    Si724    Si       0.16081    0.49966    0.24868    1.000
    N725     N        0.19983    0.51832    0.25024    1.000
    N726     N        0.15827    0.48333    0.28894    1.000
    N727     N        0.12419    0.52474    0.24630    1.000
    N728     N        0.12469    0.53676    0.31512    1.000
    N729     N        0.06552    0.49859    0.47588    1.000
    N730     N        0.06624    0.52792    0.41637    1.000
    Si731    Si       0.10996    0.51166    0.41486    1.000
    N732     N        0.99970    0.48218    0.46180    1.000
    Si733    Si       0.17842    0.52600    0.44626    1.000
    N734     N        0.23927    0.52547    0.38064    1.000
    N735     N        0.12537    0.52233    0.37615    1.000
    Si736    Si       0.20891    0.49485    0.38223    1.000
    N737     N        0.13528    0.53388    0.44402    1.000
    N738     N        0.18402    0.50931    0.48679    1.000
    N739     N        0.18608    0.49395    0.41918    1.000
    Si740    Si       0.06268    0.49572    0.57480    1.000
    N741     N        0.05620    0.52028    0.53931    1.000
    Si742    Si       0.08735    0.52518    0.50668    1.000
    N743     N        0.08622    0.51331    0.60578    1.000
    N744     N        0.02738    0.48088    0.59705    1.000
    N745     N        0.14565    0.49512    0.58176    1.000
    Si746    Si       0.22086    0.50141    0.51003    1.000
    Si747    Si       0.15810    0.50855    0.52358    1.000
    Si748    Si       0.19107    0.50892    0.58957    1.000
    N749     N        0.19556    0.50258    0.54643    1.000
    Si750    Si       0.12842    0.52173    0.61300    1.000
    N751     N        0.12409    0.53683    0.52745    1.000
    Si752    Si       0.07773    0.52810    0.64465    1.000
    Si753    Si       0.02210    0.52914    0.69727    1.000
    N754     N        0.05209    0.50948    0.67486    1.000
    N755     N        0.99196    0.49618    0.69762    1.000
    N756     N        0.02584    0.53404    0.74076    1.000
    Si757    Si       0.18942    0.48668    0.64948    1.000
    N758     N        0.22928    0.47604    0.66778    1.000
    N759     N        0.23268    0.51936    0.72965    1.000
    N760     N        0.17300    0.52370    0.63033    1.000
    N761     N        0.11875    0.51951    0.65979    1.000
    N762     N        0.18092    0.50692    0.68934    1.000
    Si763    Si       0.21543    0.48539    0.70853    1.000
    Si764    Si       0.03635    0.50969    0.77788    1.000
    N765     N        0.07857    0.49751    0.77589    1.000
    Si766    Si       0.10800    0.51831    0.79888    1.000
    N767     N        0.02042    0.53056    0.81307    1.000
    N768     N        0.17053    0.50344    0.76351    1.000
    N769     N        0.13798    0.49625    0.82228    1.000
    Si770    Si       0.14531    0.49386    0.86592    1.000
    N771     N        0.06441    0.50042    0.88725    1.000
    N772     N        0.02002    0.52461    0.94688    1.000
    Si773    Si       0.03949    0.49082    0.92306    1.000
    Si774    Si       0.02393    0.52389    0.99164    1.000
    Si775    Si       0.08801    0.53407    0.87228    1.000
    Si776    Si       0.21024    0.51775    0.89060    1.000
    N777     N        0.20984    0.51663    0.93392    1.000
    N778     N        0.12954    0.53038    0.88504    1.000
    Si779    Si       0.23247    0.51913    0.97256    1.000
    N780     N        0.18407    0.48370    0.88899    1.000
    N781     N        0.15670    0.49804    0.96280    1.000
    N782     N        0.01901    0.57302    0.08077    1.000
    Si783    Si       0.05263    0.55011    0.09701    1.000
    N784     N        0.04195    0.55616    0.01436    1.000
    Si785    Si       0.02008    0.58576    0.03914    1.000
    N786     N        0.08017    0.57853    0.11290    1.000
    N787     N        0.10434    0.59154    0.04818    1.000
    Si788    Si       0.11605    0.58649    0.08945    1.000
    N789     N        0.20431    0.58603    0.09120    1.000
    Si790    Si       0.17828    0.55516    0.07434    1.000
    N791     N        0.16819    0.57219    0.03571    1.000
    Si792    Si       0.12780    0.56830    0.01917    1.000
    N793     N        0.14465    0.55629    0.10092    1.000
    Si794    Si       0.19733    0.58751    0.00683    1.000
    N795     N        0.05007    0.58286    0.17436    1.000
    Si796    Si       0.02014    0.55129    0.16447    1.000
    Si797    Si       0.08727    0.57264    0.15460    1.000
    N798     N        0.10455    0.53371    0.15396    1.000
    Si799    Si       0.05779    0.57214    0.26689    1.000
    N800     N        0.03091    0.57485    0.30095    1.000
    N801     N        0.06862    0.55146    0.35372    1.000
    N802     N        0.09921    0.58515    0.27318    1.000
    Si803    Si       0.03214    0.54233    0.32969    1.000
    N804     N        0.00699    0.54948    0.36682    1.000
    Si805    Si       0.11076    0.55964    0.35636    1.000
    Si806    Si       0.13184    0.55484    0.27793    1.000
    Si807    Si       0.20499    0.55205    0.27797    1.000
    N808     N        0.16948    0.57497    0.27368    1.000
    N809     N        0.23116    0.54319    0.31085    1.000
    Si810    Si       0.23457    0.55741    0.35074    1.000
    N811     N        0.23239    0.56925    0.24926    1.000
    Si812    Si       0.00042    0.58752    0.48193    1.000
    N813     N        0.08636    0.55923    0.47565    1.000
    Si814    Si       0.04397    0.55477    0.39078    1.000
    N815     N        0.01541    0.55166    0.46050    1.000
    N816     N        0.11010    0.58098    0.40422    1.000
    Si817    Si       0.05475    0.53690    0.45572    1.000
    Si818    Si       0.22215    0.58829    0.41219    1.000
    Si819    Si       0.11723    0.57182    0.44745    1.000
    N820     N        0.20706    0.58476    0.37082    1.000
    N821     N        0.20184    0.56137    0.44259    1.000
    N822     N        0.02267    0.58032    0.52088    1.000
    N823     N        0.07079    0.58547    0.57028    1.000
    Si824    Si       0.01775    0.54059    0.53765    1.000
    Si825    Si       0.11052    0.56890    0.55730    1.000
    N826     N        0.99728    0.53691    0.57554    1.000
    Si827    Si       0.16327    0.58618    0.61272    1.000
    N828     N        0.13202    0.56141    0.59647    1.000
    Si829    Si       0.22671    0.58174    0.58605    1.000
    N830     N        0.18352    0.58496    0.57371    1.000
    Si831    Si       0.23826    0.58068    0.51443    1.000
    N832     N        0.19755    0.59369    0.50675    1.000
    N833     N        0.22953    0.53752    0.59064    1.000
    Si834    Si       0.98857    0.55622    0.63071    1.000
    N835     N        0.06843    0.56895    0.64285    1.000
    N836     N        0.00284    0.56141    0.67384    1.000
    N837     N        0.06938    0.57506    0.71295    1.000
    Si838    Si       0.11146    0.58562    0.71831    1.000
    Si839    Si       0.03960    0.57561    0.74380    1.000
    N840     N        0.14291    0.55582    0.71303    1.000
    N841     N        0.22970    0.57770    0.68786    1.000
    Si842    Si       0.22908    0.56133    0.72892    1.000
    N843     N        0.16313    0.58007    0.65666    1.000
    Si844    Si       0.15698    0.53993    0.67341    1.000
    Si845    Si       0.05029    0.56425    0.82156    1.000
    N846     N        0.06036    0.58214    0.78219    1.000
    N847     N        0.01836    0.58728    0.84143    1.000
    Si848    Si       0.10350    0.58895    0.78844    1.000
    Si849    Si       0.99076    0.54952    0.84043    1.000
    N850     N        0.08474    0.54044    0.82961    1.000
    N851     N        0.19388    0.57232    0.75285    1.000
    N852     N        0.12844    0.55220    0.77922    1.000
    Si853    Si       0.20506    0.58758    0.84688    1.000
    Si854    Si       0.16013    0.54333    0.75166    1.000
    N855     N        0.19183    0.55304    0.87214    1.000
    N856     N        0.07096    0.57387    0.88154    1.000
    Si857    Si       0.02811    0.57658    0.88512    1.000
    N858     N        0.99607    0.54630    0.88359    1.000
    N859     N        0.12163    0.59177    0.98438    1.000
    Si860    Si       0.17622    0.53696    0.95574    1.000
    N861     N        0.20587    0.55193    0.98469    1.000
    N862     N        0.15750    0.56956    0.93533    1.000
    Si863    Si       0.15528    0.56367    0.89373    1.000
    N864     N        0.03941    0.62206    0.02337    1.000
    Si865    Si       0.08038    0.62686    0.03969    1.000
    N866     N        0.06979    0.65013    0.07657    1.000
    Si867    Si       0.18030    0.61745    0.11083    1.000
    N868     N        0.13723    0.61763    0.11176    1.000
    N869     N        0.22856    0.60472    0.03113    1.000
    N870     N        0.18808    0.65434    0.09056    1.000
    Si871    Si       0.00393    0.61588    0.23419    1.000
    N872     N        0.01447    0.63980    0.13087    1.000
    Si873    Si       0.07380    0.61167    0.20568    1.000
    Si874    Si       0.02495    0.61940    0.16661    1.000
    N875     N        0.05646    0.64478    0.18145    1.000
    N876     N        0.09709    0.64090    0.22848    1.000
    N877     N        0.10871    0.60317    0.17453    1.000
    N878     N        0.04275    0.60030    0.23845    1.000
    N879     N        0.99216    0.60931    0.19288    1.000
    Si880    Si       0.13607    0.63053    0.15413    1.000
    N881     N        0.20630    0.63293    0.24321    1.000
    Si882    Si       0.22073    0.63512    0.16494    1.000
    N883     N        0.18082    0.62388    0.15556    1.000
    Si884    Si       0.10185    0.62797    0.27061    1.000
    N885     N        0.00313    0.64520    0.30963    1.000
    N886     N        0.09114    0.64586    0.30942    1.000
    Si887    Si       0.99854    0.60154    0.30023    1.000
    Si888    Si       0.11769    0.63383    0.34223    1.000
    N889     N        0.14498    0.64057    0.27631    1.000
    N890     N        0.19431    0.62307    0.31636    1.000
    Si891    Si       0.18001    0.61775    0.27449    1.000
    Si892    Si       0.17426    0.60752    0.35115    1.000
    N893     N        0.15677    0.64981    0.35868    1.000
    N894     N        0.13527    0.59359    0.34338    1.000
    N895     N        0.09877    0.64754    0.37905    1.000
    Si896    Si       0.00631    0.61247    0.41551    1.000
    Si897    Si       0.05512    0.63541    0.47463    1.000
    Si898    Si       0.08322    0.61710    0.40677    1.000
    N899     N        0.01493    0.62291    0.45889    1.000
    N900     N        0.08692    0.63272    0.44663    1.000
    N901     N        0.00080    0.64270    0.38385    1.000
    N902     N        0.04602    0.59747    0.40191    1.000
    N903     N        0.14410    0.60335    0.46026    1.000
    Si904    Si       0.12784    0.64506    0.46001    1.000
    N905     N        0.20796    0.62425    0.43704    1.000
    Si906    Si       0.18836    0.59632    0.46508    1.000
    N907     N        0.06929    0.63225    0.51581    1.000
    Si908    Si       0.04510    0.61021    0.54252    1.000
    N909     N        0.01219    0.63459    0.55786    1.000
    Si910    Si       0.99638    0.63102    0.59773    1.000
    Si911    Si       0.11042    0.64073    0.53096    1.000
    Si912    Si       0.10845    0.65125    0.60840    1.000
    N913     N        0.06701    0.63454    0.61882    1.000
    N914     N        0.01049    0.59216    0.61346    1.000
    Si915    Si       0.05378    0.59246    0.60979    1.000
    Si916    Si       0.17223    0.60605    0.54001    1.000
    N917     N        0.12963    0.60196    0.53617    1.000
    N918     N        0.17909    0.64783    0.54775    1.000
    N919     N        0.14135    0.62697    0.62019    1.000
    N920     N        0.03271    0.62277    0.67308    1.000
    Si921    Si       0.99606    0.60250    0.69033    1.000
    N922     N        0.00640    0.59942    0.73211    1.000
    N923     N        0.10812    0.61145    0.68332    1.000
    Si924    Si       0.06774    0.59604    0.67554    1.000
    N925     N        0.17567    0.64023    0.68153    1.000
    Si926    Si       0.14328    0.61777    0.66179    1.000
    N927     N        0.21746    0.60311    0.62390    1.000
    Si928    Si       0.20678    0.60885    0.66796    1.000
    N929     N        0.00611    0.64366    0.79677    1.000
    Si930    Si       0.99582    0.62454    0.83385    1.000
    Si931    Si       0.09728    0.60450    0.86553    1.000
    N932     N        0.10675    0.61223    0.82348    1.000
    N933     N        0.11561    0.61165    0.75150    1.000
    Si934    Si       0.14373    0.63842    0.82290    1.000
    Si935    Si       0.19414    0.60913    0.77655    1.000
    N936     N        0.23320    0.62804    0.77127    1.000
    N937     N        0.17676    0.60765    0.81641    1.000
    N938     N        0.17393    0.64273    0.75446    1.000
    Si939    Si       0.12992    0.65204    0.75305    1.000
    N940     N        0.99185    0.63709    0.97275    1.000
    N941     N        0.07518    0.63880    0.88157    1.000
    Si942    Si       0.05370    0.63667    0.91926    1.000
    N943     N        0.06488    0.63972    0.96060    1.000
    N944     N        0.02455    0.60547    0.91724    1.000
    Si945    Si       0.03127    0.64462    0.98870    1.000
    Si946    Si       0.14949    0.60759    0.95641    1.000
    Si947    Si       0.19963    0.65447    0.96787    1.000
    Si948    Si       0.16374    0.63351    0.88710    1.000
    N949     N        0.20452    0.62484    0.87394    1.000
    N950     N        0.13836    0.60068    0.87809    1.000
    N951     N        0.18099    0.61987    0.98182    1.000
    N952     N        0.15137    0.64292    0.92737    1.000
    Si953    Si       0.23599    0.64926    0.89240    1.000
    Si954    Si       0.09288    0.68375    0.06289    1.000
    N955     N        0.00557    0.69007    0.09241    1.000
    N956     N        0.09679    0.66484    0.02360    1.000
    Si957    Si       0.04237    0.66352    0.10706    1.000
    N958     N        0.04055    0.68698    0.99346    1.000
    N959     N        0.12655    0.69216    0.09058    1.000
    N960     N        0.15543    0.70132    0.03025    1.000
    Si961    Si       0.16625    0.68446    0.07025    1.000
    Si962    Si       0.22878    0.66953    0.10032    1.000
    N963     N        0.23084    0.70871    0.12290    1.000
    Si964    Si       0.04231    0.68750    0.17029    1.000
    Si965    Si       0.09654    0.67053    0.19854    1.000
    N966     N        0.06367    0.69076    0.13146    1.000
    N967     N        0.00098    0.69103    0.16531    1.000
    N968     N        0.06825    0.70273    0.20235    1.000
    Si969    Si       0.10799    0.69838    0.13069    1.000
    N970     N        0.99614    0.65629    0.24273    1.000
    N971     N        0.16717    0.69456    0.23573    1.000
    Si972    Si       0.20788    0.67374    0.22819    1.000
    N973     N        0.12075    0.67100    0.16102    1.000
    N974     N        0.22344    0.67278    0.18698    1.000
    Si975    Si       0.07693    0.68602    0.30408    1.000
    N976     N        0.04746    0.69166    0.27272    1.000
    N977     N        0.05792    0.70125    0.34231    1.000
    Si978    Si       0.00500    0.67869    0.28094    1.000
    N979     N        0.11490    0.70546    0.29275    1.000
    Si980    Si       0.19170    0.66265    0.33341    1.000
    N981     N        0.17996    0.68940    0.30266    1.000
    N982     N        0.22498    0.68017    0.35481    1.000
    Si983    Si       0.14804    0.68345    0.27521    1.000
    Si984    Si       0.07665    0.68557    0.37617    1.000
    N985     N        0.04714    0.68919    0.40895    1.000
    N986     N        0.03954    0.67842    0.47696    1.000
    Si987    Si       0.00555    0.68308    0.39882    1.000
    Si988    Si       0.99812    0.66420    0.46914    1.000
    Si989    Si       0.05540    0.71035    0.44767    1.000
    N990     N        0.09986    0.70870    0.45492    1.000
    N991     N        0.11444    0.70824    0.38600    1.000
    Si992    Si       0.19628    0.66656    0.43881    1.000
    N993     N        0.20273    0.66985    0.48270    1.000
    N994     N        0.20605    0.70602    0.42176    1.000
    Si995    Si       0.13731    0.67154    0.39118    1.000
    N996     N        0.15296    0.66514    0.43069    1.000
    Si997    Si       0.11833    0.70517    0.49316    1.000
    N998     N        0.10609    0.66195    0.56624    1.000
    Si999    Si       0.99356    0.67430    0.54413    1.000
    Si1000   Si       0.09440    0.70656    0.56386    1.000
    N1001    N        0.01966    0.70800    0.54490    1.000
    N1002    N        0.08482    0.70990    0.52035    1.000
    Si1003   Si       0.04432    0.70959    0.50875    1.000
    N1004    N        0.13229    0.66331    0.50003    1.000
    Si1005   Si       0.20864    0.66906    0.57068    1.000
    Si1006   Si       0.17358    0.67800    0.51433    1.000
    N1007    N        0.18337    0.69305    0.59616    1.000
    N1008    N        0.21858    0.69511    0.53822    1.000
    Si1009   Si       0.99001    0.69627    0.73526    1.000
    N1010    N        0.00509    0.66784    0.61882    1.000
    N1011    N        0.05654    0.68875    0.66476    1.000
    N1012    N        0.09852    0.67417    0.73426    1.000
    N1013    N        0.99255    0.71167    0.69402    1.000
    Si1014   Si       0.03960    0.65580    0.64461    1.000
    Si1015   Si       0.19057    0.68025    0.68700    1.000
    N1016    N        0.21525    0.69857    0.65595    1.000
    N1017    N        0.16150    0.70990    0.70036    1.000
    N1018    N        0.22245    0.68286    0.71779    1.000
    N1019    N        0.11339    0.68955    0.62534    1.000
    Si1020   Si       0.02462    0.68168    0.80268    1.000
    N1021    N        0.05970    0.67701    0.82531    1.000
    Si1022   Si       0.09777    0.69410    0.81258    1.000
    N1023    N        0.02825    0.68941    0.75714    1.000
    Si1024   Si       0.04779    0.67131    0.86644    1.000
    N1025    N        0.00710    0.65979    0.86054    1.000
    Si1026   Si       0.06893    0.70204    0.74483    1.000
    N1027    N        0.14874    0.66375    0.85841    1.000
    N1028    N        0.20861    0.69216    0.78455    1.000
    N1029    N        0.13365    0.67329    0.79654    1.000
    Si1030   Si       0.14384    0.70590    0.86331    1.000
    Si1031   Si       0.16907    0.70544    0.79442    1.000
    Si1032   Si       0.21394    0.66171    0.75345    1.000
    N1033    N        0.03650    0.67811    0.91193    1.000
    Si1034   Si       0.08218    0.67315    0.98399    1.000
    Si1035   Si       0.99357    0.67176    0.89967    1.000
    N1036    N        0.22629    0.65406    0.93239    1.000
    Si1037   Si       0.14596    0.68530    0.93569    1.000
    N1038    N        0.11552    0.69144    0.96522    1.000
    N1039    N        0.18030    0.69434    0.95950    1.000
    N1040    N        0.23593    0.66220    0.99332    1.000
    Si1041   Si       0.09107    0.75308    0.04528    1.000
    Si1042   Si       0.03058    0.72577    0.07703    1.000
    N1043    N        0.03943    0.75719    0.10603    1.000
    N1044    N        0.09706    0.74260    0.00354    1.000
    N1045    N        0.00826    0.72483    0.04030    1.000
    N1046    N        0.07163    0.71995    0.06352    1.000
    Si1047   Si       0.01079    0.71742    0.99664    1.000
    Si1048   Si       0.22265    0.74299    0.09550    1.000
    N1049    N        0.21784    0.72723    0.01006    1.000
    Si1050   Si       0.14534    0.73672    0.09346    1.000
    Si1051   Si       0.18009    0.73992    0.03225    1.000
    N1052    N        0.18539    0.72563    0.07662    1.000
    N1053    N        0.12892    0.76327    0.06120    1.000
    N1054    N        0.16103    0.74961    0.99408    1.000
    Si1055   Si       0.13288    0.71553    0.99553    1.000
    N1056    N        0.00628    0.72577    0.22623    1.000
    Si1057   Si       0.04742    0.71923    0.23700    1.000
    Si1058   Si       0.09859    0.77304    0.22359    1.000
    N1059    N        0.20806    0.75103    0.23355    1.000
    Si1060   Si       0.14277    0.76769    0.15964    1.000
    N1061    N        0.13242    0.75181    0.24093    1.000
    N1062    N        0.17394    0.75290    0.18357    1.000
    N1063    N        0.12829    0.73827    0.13175    1.000
    Si1064   Si       0.16794    0.73721    0.22482    1.000
    Si1065   Si       0.21604    0.76658    0.19277    1.000
    Si1066   Si       0.01975    0.72455    0.33966    1.000
    N1067    N        0.02293    0.76470    0.35460    1.000
    N1068    N        0.06687    0.75544    0.24807    1.000
    N1069    N        0.99305    0.71454    0.30545    1.000
    Si1070   Si       0.12390    0.74756    0.28507    1.000
    Si1071   Si       0.18944    0.72952    0.31723    1.000
    N1072    N        0.16333    0.76107    0.30008    1.000
    N1073    N        0.22810    0.73810    0.30152    1.000
    N1074    N        0.18143    0.72871    0.35998    1.000
    Si1075   Si       0.23869    0.73276    0.25991    1.000
    N1076    N        0.03436    0.73807    0.47615    1.000
    N1077    N        0.06665    0.75140    0.42343    1.000
    Si1078   Si       0.10754    0.73615    0.41945    1.000
    Si1079   Si       0.03735    0.77101    0.44843    1.000
    Si1080   Si       0.99003    0.76182    0.38553    1.000
    N1081    N        0.18054    0.76503    0.46459    1.000
    Si1082   Si       0.21749    0.71462    0.38140    1.000
    N1083    N        0.13593    0.76706    0.41499    1.000
    Si1084   Si       0.20947    0.74505    0.43902    1.000
    Si1085   Si       0.16350    0.76360    0.38156    1.000
    N1086    N        0.20014    0.76933    0.40321    1.000
    Si1087   Si       0.03056    0.73563    0.57470    1.000
    N1088    N        0.99564    0.74521    0.59913    1.000
    N1089    N        0.06574    0.71970    0.59500    1.000
    N1090    N        0.12709    0.73369    0.57161    1.000
    Si1091   Si       0.17869    0.75735    0.50582    1.000
    N1092    N        0.21662    0.75842    0.52761    1.000
    N1093    N        0.15576    0.71993    0.50922    1.000
    Si1094   Si       0.14480    0.71096    0.60545    1.000
    Si1095   Si       0.12991    0.77448    0.55674    1.000
    Si1096   Si       0.03532    0.72059    0.68640    1.000
    N1097    N        0.03941    0.74451    0.65131    1.000
    N1098    N        0.05811    0.73563    0.71949    1.000
    N1099    N        0.10189    0.74417    0.65993    1.000
    Si1100   Si       0.07655    0.71658    0.63652    1.000
    Si1101   Si       0.20564    0.72276    0.62311    1.000
    N1102    N        0.16315    0.74057    0.63255    1.000
    N1103    N        0.15609    0.77147    0.69691    1.000
    N1104    N        0.21730    0.76704    0.62810    1.000
    Si1105   Si       0.17451    0.74379    0.72605    1.000
    N1106    N        0.21746    0.75024    0.72985    1.000
    Si1107   Si       0.14238    0.73634    0.67081    1.000
    Si1108   Si       0.01446    0.74476    0.84643    1.000
    N1109    N        0.08968    0.72100    0.78039    1.000
    Si1110   Si       0.08935    0.76055    0.84307    1.000
    N1111    N        0.10654    0.72121    0.84664    1.000
    N1112    N        0.99960    0.71717    0.81568    1.000
    N1113    N        0.04870    0.76885    0.82850    1.000
    Si1114   Si       0.11847    0.75525    0.77551    1.000
    N1115    N        0.15528    0.73506    0.76489    1.000
    Si1116   Si       0.20271    0.75236    0.84302    1.000
    N1117    N        0.17269    0.72143    0.83471    1.000
    N1118    N        0.03282    0.73462    0.88439    1.000
    N1119    N        0.06533    0.74457    0.93727    1.000
    N1120    N        0.00784    0.74344    0.96150    1.000
    Si1121   Si       0.08816    0.76562    0.96743    1.000
    Si1122   Si       0.02853    0.72150    0.92663    1.000
    Si1123   Si       0.05450    0.76985    0.90181    1.000
    N1124    N        0.15286    0.71669    0.90542    1.000
    Si1125   Si       0.17731    0.75333    0.90648    1.000
    N1126    N        0.19250    0.76576    0.94452    1.000
    N1127    N        0.21467    0.74750    0.88411    1.000
    Si1128   Si       0.20272    0.73195    0.96976    1.000
    Si1129   Si       0.06304    0.79121    0.09468    1.000
    Si1130   Si       0.04706    0.80940    0.02274    1.000
    N1131    N        0.06889    0.78722    0.05234    1.000
    N1132    N        0.02847    0.81672    0.10165    1.000
    N1133    N        0.00638    0.81778    0.03707    1.000
    Si1134   Si       0.14939    0.79765    0.04528    1.000
    Si1135   Si       0.21754    0.80847    0.06461    1.000
    N1136    N        0.21753    0.78662    0.10463    1.000
    N1137    N        0.13851    0.80828    0.00549    1.000
    N1138    N        0.19079    0.78123    0.04397    1.000
    N1139    N        0.14554    0.82863    0.07467    1.000
    Si1140   Si       0.13199    0.82525    0.11634    1.000
    N1141    N        0.09119    0.80818    0.12118    1.000
    N1142    N        0.03568    0.79565    0.16824    1.000
    Si1143   Si       0.07761    0.80738    0.16521    1.000
    Si1144   Si       0.00604    0.81555    0.19518    1.000
    Si1145   Si       0.01507    0.78346    0.13145    1.000
    N1146    N        0.10611    0.77896    0.18234    1.000
    N1147    N        0.99838    0.79630    0.23711    1.000
    N1148    N        0.09375    0.80950    0.24534    1.000
    N1149    N        0.15926    0.79935    0.13609    1.000
    Si1150   Si       0.20007    0.81081    0.13681    1.000
    N1151    N        0.21575    0.80697    0.17670    1.000
    Si1152   Si       0.03557    0.80291    0.34037    1.000
    Si1153   Si       0.07042    0.78877    0.27579    1.000
    N1154    N        0.07440    0.81683    0.35839    1.000
    N1155    N        0.03707    0.80394    0.29574    1.000
    Si1156   Si       0.99685    0.80821    0.28215    1.000
    Si1157   Si       0.11064    0.80254    0.33743    1.000
    N1158    N        0.09719    0.77601    0.30583    1.000
    N1159    N        0.00397    0.82992    0.34910    1.000
    N1160    N        0.21671    0.79276    0.33661    1.000
    Si1161   Si       0.17540    0.79833    0.31821    1.000
    N1162    N        0.14962    0.79202    0.35514    1.000
    N1163    N        0.18535    0.82764    0.28725    1.000
    Si1164   Si       0.01972    0.82682    0.48944    1.000
    N1165    N        0.05207    0.80722    0.46608    1.000
    Si1166   Si       0.08810    0.82783    0.45704    1.000
    N1167    N        0.00043    0.77181    0.42736    1.000
    Si1168   Si       0.15418    0.79472    0.44693    1.000
    N1169    N        0.12051    0.80272    0.46983    1.000
    Si1170   Si       0.23199    0.78290    0.37799    1.000
    Si1171   Si       0.06058    0.80924    0.55553    1.000
    N1172    N        0.09779    0.79773    0.53598    1.000
    N1173    N        0.03967    0.77363    0.55777    1.000
    N1174    N        0.15336    0.79550    0.58548    1.000
    N1175    N        0.15637    0.78959    0.52517    1.000
    Si1176   Si       0.12070    0.82128    0.50854    1.000
    Si1177   Si       0.17064    0.81797    0.55298    1.000
    N1178    N        0.21121    0.82413    0.54961    1.000
    N1179    N        0.98912    0.79893    0.65453    1.000
    N1180    N        0.98732    0.79082    0.72282    1.000
    N1181    N        0.04987    0.79783    0.62470    1.000
    Si1182   Si       0.01070    0.81103    0.68974    1.000
    N1183    N        0.05277    0.79609    0.69037    1.000
    Si1184   Si       0.07336    0.77700    0.65674    1.000
    N1185    N        0.10667    0.80749    0.65078    1.000
    Si1186   Si       0.06558    0.77912    0.72789    1.000
    N1187    N        0.10845    0.78310    0.74053    1.000
    Si1188   Si       0.01502    0.77399    0.63077    1.000
    Si1189   Si       0.17324    0.78095    0.62167    1.000
    Si1190   Si       0.14284    0.80797    0.67560    1.000
    N1191    N        0.23340    0.80847    0.69378    1.000
    N1192    N        0.17682    0.81369    0.64882    1.000
    Si1193   Si       0.22740    0.80284    0.64938    1.000
    N1194    N        0.04735    0.79815    0.76235    1.000
    Si1195   Si       0.06265    0.80522    0.80579    1.000
    Si1196   Si       0.00493    0.80824    0.75908    1.000
    N1197    N        0.10463    0.78216    0.80556    1.000
    N1198    N        0.02454    0.83050    0.81376    1.000
    Si1199   Si       0.99155    0.80571    0.82630    1.000
    N1200    N        0.23456    0.80383    0.77393    1.000
    N1201    N        0.18930    0.79055    0.83108    1.000
    Si1202   Si       0.19653    0.81504    0.79709    1.000
    Si1203   Si       0.17188    0.81445    0.86172    1.000
    N1204    N        0.15995    0.82110    0.77511    1.000
    Si1205   Si       0.12804    0.82070    0.74488    1.000
    N1206    N        0.02893    0.79995    0.91729    1.000
    Si1207   Si       0.02026    0.78564    0.95703    1.000
    N1208    N        0.05875    0.79707    0.97970    1.000
    N1209    N        0.08954    0.77907    0.88141    1.000
    Si1210   Si       0.11941    0.79895    0.90582    1.000
    N1211    N        0.12190    0.78339    0.94641    1.000
    N1212    N        0.17101    0.83048    0.95659    1.000
    N1213    N        0.15679    0.78490    0.88790    1.000
    Si1214   Si       0.15938    0.78773    0.97055    1.000
    N1215    N        0.05789    0.85098    0.01488    1.000
    Si1216   Si       0.00320    0.83988    0.07527    1.000
    N1217    N        0.01949    0.87862    0.07300    1.000
    N1218    N        0.20559    0.84786    0.05752    1.000
    Si1219   Si       0.16723    0.86263    0.05440    1.000
    N1220    N        0.14407    0.87136    0.01785    1.000
    Si1221   Si       0.09661    0.85020    0.23095    1.000
    N1222    N        0.08948    0.84382    0.18754    1.000
    N1223    N        0.00406    0.85891    0.20696    1.000
    N1224    N        0.99597    0.87908    0.13866    1.000
    Si1225   Si       0.10925    0.87700    0.16876    1.000
    N1226    N        0.22474    0.85520    0.23027    1.000
    N1227    N        0.19954    0.85396    0.13009    1.000
    N1228    N        0.14582    0.88430    0.19064    1.000
    Si1229   Si       0.17128    0.88144    0.15268    1.000
    N1230    N        0.13484    0.86398    0.13480    1.000
    Si1231   Si       0.00617    0.87039    0.36345    1.000
    N1232    N        0.09448    0.88424    0.35730    1.000
    N1233    N        0.07479    0.88604    0.24305    1.000
    Si1234   Si       0.15036    0.85551    0.28797    1.000
    Si1235   Si       0.22228    0.84343    0.27247    1.000
    Si1236   Si       0.13485    0.87573    0.34507    1.000
    N1237    N        0.22955    0.88097    0.29458    1.000
    N1238    N        0.12759    0.83872    0.31930    1.000
    N1239    N        0.13418    0.86116    0.24875    1.000
    N1240    N        0.15919    0.89117    0.31091    1.000
    Si1241   Si       0.07641    0.85190    0.38439    1.000
    N1242    N        0.10173    0.84684    0.41902    1.000
    N1243    N        0.01984    0.86410    0.46483    1.000
    N1244    N        0.03757    0.86780    0.39589    1.000
    Si1245   Si       0.00806    0.87972    0.42536    1.000
    N1246    N        0.10030    0.85690    0.48787    1.000
    Si1247   Si       0.21180    0.84234    0.42594    1.000
    N1248    N        0.21435    0.88622    0.41906    1.000
    Si1249   Si       0.14223    0.86297    0.42108    1.000
    N1250    N        0.15734    0.87687    0.38285    1.000
    N1251    N        0.17047    0.83425    0.43548    1.000
    N1252    N        0.00989    0.87472    0.57936    1.000
    Si1253   Si       0.03601    0.87761    0.54492    1.000
    N1254    N        0.03636    0.83672    0.53042    1.000
    Si1255   Si       0.10734    0.86451    0.56189    1.000
    N1256    N        0.08272    0.83530    0.58309    1.000
    N1257    N        0.14232    0.85007    0.53909    1.000
    Si1258   Si       0.22868    0.86367    0.55523    1.000
    N1259    N        0.23261    0.88397    0.51803    1.000
    Si1260   Si       0.16355    0.88606    0.55410    1.000
    N1261    N        0.01924    0.85306    0.69646    1.000
    Si1262   Si       0.05407    0.87371    0.67965    1.000
    N1263    N        0.07372    0.87034    0.64113    1.000
    Si1264   Si       0.00604    0.87657    0.73200    1.000
    N1265    N        0.08793    0.87736    0.70470    1.000
    Si1266   Si       0.07794    0.82995    0.62497    1.000
    Si1267   Si       0.12950    0.87820    0.68986    1.000
    Si1268   Si       0.18772    0.85733    0.65384    1.000
    N1269    N        0.14970    0.88103    0.65110    1.000
    N1270    N        0.22623    0.84555    0.63341    1.000
    N1271    N        0.20446    0.86825    0.69205    1.000
    N1272    N        0.13808    0.83795    0.70540    1.000
    Si1273   Si       0.04213    0.85819    0.84099    1.000
    N1274    N        0.07866    0.83511    0.83827    1.000
    N1275    N        0.10419    0.85161    0.76840    1.000
    Si1276   Si       0.08388    0.88435    0.74813    1.000
    N1277    N        0.03996    0.88584    0.75670    1.000
    Si1278   Si       0.11024    0.85448    0.85795    1.000
    Si1279   Si       0.13548    0.85416    0.79781    1.000
    N1280    N        0.21468    0.85117    0.81329    1.000
    N1281    N        0.14637    0.84141    0.83938    1.000
    N1282    N        0.02587    0.86376    0.88039    1.000
    Si1283   Si       0.06362    0.84305    0.97080    1.000
    N1284    N        0.02956    0.85986    0.95184    1.000
    Si1285   Si       0.01368    0.84200    0.91281    1.000
    N1286    N        0.10319    0.85320    0.96143    1.000
    N1287    N        0.11236    0.84042    0.89743    1.000
    N1288    N        0.19991    0.84020    0.88476    1.000
    Si1289   Si       0.11575    0.87461    0.92557    1.000
    N1290    N        0.15730    0.88769    0.92316    1.000
    N1291    N        0.22474    0.87144    0.94302    1.000
    Si1292   Si       0.13787    0.84521    0.98483    1.000
    Si1293   Si       0.18730    0.85662    0.92554    1.000
    N1294    N        0.08090    0.90190    0.05759    1.000
    Si1295   Si       0.01178    0.90430    0.10709    1.000
    Si1296   Si       0.07378    0.93544    0.08553    1.000
    N1297    N        0.03501    0.91132    0.00505    1.000
    Si1298   Si       0.04775    0.88565    0.03817    1.000
    N1299    N        0.12167    0.93676    0.01595    1.000
    Si1300   Si       0.11917    0.90262    0.03918    1.000
    Si1301   Si       0.17367    0.92390    0.08946    1.000
    N1302    N        0.21144    0.91131    0.07600    1.000
    N1303    N        0.21228    0.91967    0.00308    1.000
    N1304    N        0.14670    0.89665    0.07218    1.000
    Si1305   Si       0.19647    0.94742    0.03418    1.000
    N1306    N        0.04431    0.93072    0.12055    1.000
    N1307    N        0.09753    0.91689    0.16243    1.000
    N1308    N        0.03087    0.91742    0.18922    1.000
    Si1309   Si       0.05862    0.93768    0.16165    1.000
    Si1310   Si       0.03917    0.90872    0.23005    1.000
    Si1311   Si       0.99764    0.89264    0.17997    1.000
    N1312    N        0.18650    0.91607    0.24034    1.000
    Si1313   Si       0.20913    0.93590    0.14750    1.000
    Si1314   Si       0.21873    0.89732    0.21600    1.000
    N1315    N        0.20929    0.89652    0.17334    1.000
    N1316    N        0.16871    0.92432    0.13252    1.000
    Si1317   Si       0.14758    0.89806    0.23144    1.000
    Si1318   Si       0.12897    0.94079    0.14361    1.000
    Si1319   Si       0.06560    0.91317    0.34100    1.000
    N1320    N        0.08529    0.93130    0.30739    1.000
    Si1321   Si       0.09010    0.92154    0.26515    1.000
    N1322    N        0.00656    0.90174    0.25653    1.000
    Si1323   Si       0.99890    0.91236    0.29781    1.000
    N1324    N        0.02321    0.89354    0.33059    1.000
    N1325    N        0.05717    0.94690    0.24901    1.000
    N1326    N        0.21124    0.91270    0.35233    1.000
    Si1327   Si       0.19837    0.90778    0.31150    1.000
    N1328    N        0.12730    0.93178    0.24982    1.000
    N1329    N        0.19137    0.94962    0.29752    1.000
    Si1330   Si       0.16547    0.95024    0.26266    1.000
    N1331    N        0.05585    0.94427    0.36942    1.000
    N1332    N        0.99902    0.91953    0.44645    1.000
    N1333    N        0.06737    0.91703    0.46534    1.000
    Si1334   Si       0.02785    0.90437    0.47613    1.000
    Si1335   Si       0.10569    0.89924    0.48032    1.000
    Si1336   Si       0.18925    0.90376    0.38837    1.000
    Si1337   Si       0.14396    0.94009    0.43254    1.000
    N1338    N        0.16769    0.94390    0.39622    1.000
    N1339    N        0.13791    0.89988    0.44762    1.000
    N1340    N        0.22412    0.94683    0.48705    1.000
    N1341    N        0.04005    0.93317    0.60564    1.000
    N1342    N        0.01671    0.90453    0.51677    1.000
    Si1343   Si       0.00034    0.91482    0.59993    1.000
    Si1344   Si       0.09487    0.93600    0.54886    1.000
    N1345    N        0.07615    0.89442    0.54686    1.000
    N1346    N        0.11314    0.93181    0.50930    1.000
    Si1347   Si       0.21451    0.92546    0.59495    1.000
    N1348    N        0.17361    0.91744    0.52578    1.000
    Si1349   Si       0.21628    0.92296    0.51995    1.000
    N1350    N        0.17311    0.93711    0.61036    1.000
    N1351    N        0.23381    0.93816    0.55694    1.000
    N1352    N        0.13143    0.89408    0.58238    1.000
    N1353    N        0.19820    0.88470    0.57853    1.000
    N1354    N        0.04262    0.91605    0.66971    1.000
    N1355    N        0.10417    0.93536    0.62999    1.000
    Si1356   Si       0.06653    0.91276    0.63336    1.000
    Si1357   Si       0.01453    0.93867    0.69174    1.000
    N1358    N        0.98739    0.91186    0.71403    1.000
    Si1359   Si       0.19187    0.89411    0.72437    1.000
    Si1360   Si       0.13996    0.91220    0.62180    1.000
    N1361    N        0.15200    0.90790    0.71156    1.000
    N1362    N        0.20738    0.93503    0.72512    1.000
    N1363    N        0.09460    0.92453    0.76023    1.000
    Si1364   Si       0.02309    0.90870    0.78989    1.000
    N1365    N        0.03086    0.89934    0.83256    1.000
    N1366    N        0.10361    0.89708    0.85307    1.000
    Si1367   Si       0.01150    0.90386    0.87024    1.000
    Si1368   Si       0.11742    0.93709    0.85666    1.000
    Si1369   Si       0.12991    0.93106    0.78385    1.000
    N1370    N        0.21323    0.91924    0.82997    1.000
    N1371    N        0.15073    0.89447    0.79746    1.000
    Si1372   Si       0.19363    0.88878    0.80427    1.000
    N1373    N        0.20495    0.87979    0.76234    1.000
    N1374    N        0.02584    0.93511    0.89709    1.000
    Si1375   Si       0.06613    0.94042    0.91158    1.000
    N1376    N        0.99682    0.92655    0.95773    1.000
    N1377    N        0.08569    0.90345    0.91824    1.000
    Si1378   Si       0.03175    0.94744    0.98044    1.000
    Si1379   Si       0.00903    0.88797    0.97828    1.000
    N1380    N        0.15975    0.93657    0.87229    1.000
    Si1381   Si       0.16104    0.93122    0.91479    1.000
    Si1382   Si       0.22173    0.91173    0.96169    1.000
    N1383    N        0.20369    0.93687    0.92942    1.000
    N1384    N        0.04911    0.96328    0.06548    1.000
    Si1385   Si       0.01579    0.97218    0.09414    1.000
    Si1386   Si       0.03595    0.99851    0.03840    1.000
    N1387    N        0.01841    0.98143    0.00165    1.000
    N1388    N        0.10989    0.95023    0.10564    1.000
    N1389    N        0.00205    0.00379    0.06433    1.000
    Si1390   Si       0.23587    0.00311    0.03839    1.000
    N1391    N        0.11978    0.00031    0.04986    1.000
    Si1392   Si       0.13371    0.97681    0.01493    1.000
    Si1393   Si       0.13097    0.97778    0.08352    1.000
    N1394    N        0.17553    0.97570    0.00552    1.000
    N1395    N        0.17023    0.96142    0.06771    1.000
    Si1396   Si       0.18840    0.99486    0.09235    1.000
    N1397    N        0.21436    0.96946    0.11489    1.000
    N1398    N        0.23616    0.96030    0.04637    1.000
    Si1399   Si       0.02284    0.00252    0.17376    1.000
    Si1400   Si       0.10337    0.99637    0.17984    1.000
    N1401    N        0.01984    0.99392    0.13260    1.000
    N1402    N        0.06084    0.97751    0.18192    1.000
    Si1403   Si       0.06238    0.98400    0.22553    1.000
    N1404    N        0.10257    0.00371    0.22498    1.000
    N1405    N        0.13415    0.96970    0.17575    1.000
    N1406    N        0.17255    0.98872    0.23799    1.000
    Si1407   Si       0.17263    0.98227    0.19285    1.000
    N1408    N        0.20843    0.96052    0.18174    1.000
    Si1409   Si       0.03907    0.97339    0.28046    1.000
    N1410    N        0.06289    0.99420    0.30941    1.000
    Si1411   Si       0.09759    0.97082    0.31842    1.000
    N1412    N        0.00508    0.95562    0.30020    1.000
    N1413    N        0.02848    0.00063    0.24717    1.000
    N1414    N        0.11612    0.96753    0.35846    1.000
    N1415    N        0.23745    0.97780    0.34588    1.000
    N1416    N        0.13054    0.98282    0.29054    1.000
    Si1417   Si       0.20437    0.98348    0.32005    1.000
    N1418    N        0.17115    0.00152    0.34163    1.000
    Si1419   Si       0.13711    0.00637    0.25213    1.000
    N1420    N        0.10630    0.95934    0.42430    1.000
    N1421    N        0.08945    0.99585    0.47264    1.000
    Si1422   Si       0.99691    0.96013    0.43017    1.000
    N1423    N        0.03921    0.97255    0.43547    1.000
    Si1424   Si       0.08430    0.96904    0.38774    1.000
    Si1425   Si       0.07403    0.95741    0.45693    1.000
    N1426    N        0.16122    0.97196    0.45638    1.000
    Si1427   Si       0.19736    0.98125    0.48077    1.000
    Si1428   Si       0.15393    0.98213    0.37710    1.000
    Si1429   Si       0.12637    0.99790    0.44766    1.000
    Si1430   Si       0.04566    0.97213    0.58829    1.000
    N1431    N        0.00250    0.97088    0.50794    1.000
    N1432    N        0.06193    0.96274    0.54884    1.000
    Si1433   Si       0.03136    0.98826    0.53318    1.000
    N1434    N        0.01241    0.99418    0.57415    1.000
    N1435    N        0.07157    0.99774    0.61306    1.000
    N1436    N        0.17798    0.98653    0.51956    1.000
    Si1437   Si       0.15786    0.97301    0.59710    1.000
    N1438    N        0.13164    0.96080    0.56491    1.000
    Si1439   Si       0.15032    0.95274    0.52760    1.000
    N1440    N        0.23308    0.97098    0.61371    1.000
    N1441    N        0.18353    0.00954    0.58746    1.000
    Si1442   Si       0.06305    0.99754    0.70692    1.000
    N1443    N        0.09745    0.98878    0.67870    1.000
    Si1444   Si       0.10242    0.97888    0.63683    1.000
    N1445    N        0.99726    0.97538    0.67164    1.000
    N1446    N        0.04092    0.96242    0.71737    1.000
    N1447    N        0.14284    0.99566    0.63273    1.000
    N1448    N        0.16763    0.98834    0.70070    1.000
    N1449    N        0.23615    0.99275    0.71254    1.000
    Si1450   Si       0.16641    0.94892    0.71939    1.000
    Si1451   Si       0.00663    0.98003    0.78635    1.000
    N1452    N        0.99730    0.98519    0.82937    1.000
    Si1453   Si       0.10935    0.00066    0.82233    1.000
    Si1454   Si       0.06447    0.95443    0.75308    1.000
    N1455    N        0.08320    0.99573    0.74669    1.000
    N1456    N        0.06679    0.00621    0.81635    1.000
    N1457    N        0.03349    0.94913    0.78200    1.000
    N1458    N        0.11756    0.95820    0.81835    1.000
    Si1459   Si       0.16393    0.99391    0.78299    1.000
    N1460    N        0.18335    0.98422    0.82094    1.000
    N1461    N        0.15473    0.95626    0.76197    1.000
    Si1462   Si       0.19232    0.95272    0.84966    1.000
    Si1463   Si       0.99849    0.95691    0.92311    1.000
    Si1464   Si       0.10159    0.97993    0.94851    1.000
    N1465    N        0.08710    0.96176    0.87782    1.000
    N1466    N        0.00472    0.99816    0.93512    1.000
    N1467    N        0.06400    0.95658    0.95228    1.000
    Si1468   Si       0.08174    0.00500    0.88292    1.000
    N1469    N        0.13503    0.95732    0.93524    1.000
    N1470    N        0.21702    0.00327    0.93969    1.000
    Si1471   Si       0.19679    0.00329    0.97873    1.000
    N1472    N        0.11533    0.00122    0.98356    1.000
    N1473    N        0.21420    0.98002    0.87429    1.000
    Si1474   Si       0.22569    0.97057    0.91359    1.000
    Si1475   Si       0.35040    0.03345    0.06253    1.000
    Si1476   Si       0.28264    0.05364    0.07030    1.000
    N1477    N        0.28796    0.04947    0.11363    1.000
    N1478    N        0.27454    0.01484    0.05544    1.000
    N1479    N        0.31960    0.06139    0.04667    1.000
    N1480    N        0.35898    0.04873    0.10453    1.000
    Si1481   Si       0.45739    0.04198    0.09150    1.000
    N1482    N        0.38554    0.03063    0.03650    1.000
    Si1483   Si       0.42573    0.04393    0.03023    1.000
    Si1484   Si       0.48238    0.01001    0.03784    1.000
    N1485    N        0.43259    0.06673    0.06527    1.000
    N1486    N        0.43090    0.04206    0.12311    1.000
    Si1487   Si       0.29425    0.04504    0.19346    1.000
    Si1488   Si       0.32589    0.03715    0.13303    1.000
    N1489    N        0.25453    0.04943    0.17955    1.000
    Si1490   Si       0.33701    0.02892    0.24192    1.000
    N1491    N        0.30995    0.00826    0.21097    1.000
    N1492    N        0.32489    0.06250    0.16868    1.000
    N1493    N        0.36322    0.06093    0.22758    1.000
    N1494    N        0.45950    0.04574    0.18583    1.000
    Si1495   Si       0.42421    0.03338    0.16546    1.000
    N1496    N        0.39253    0.06479    0.16413    1.000
    Si1497   Si       0.29711    0.04495    0.30909    1.000
    N1498    N        0.28829    0.02105    0.34421    1.000
    Si1499   Si       0.24982    0.01635    0.36400    1.000
    N1500    N        0.30554    0.01651    0.27619    1.000
    N1501    N        0.33608    0.06452    0.30943    1.000
    N1502    N        0.35001    0.03173    0.36858    1.000
    Si1503   Si       0.36879    0.04911    0.33393    1.000
    N1504    N        0.41468    0.04335    0.26883    1.000
    N1505    N        0.46227    0.04970    0.32774    1.000
    Si1506   Si       0.45300    0.05615    0.28475    1.000
    N1507    N        0.39654    0.01676    0.32463    1.000
    Si1508   Si       0.44105    0.01360    0.33091    1.000
    N1509    N        0.48094    0.05292    0.25170    1.000
    N1510    N        0.32474    0.03362    0.43755    1.000
    Si1511   Si       0.35696    0.03581    0.41127    1.000
    Si1512   Si       0.31115    0.00992    0.47178    1.000
    Si1513   Si       0.46394    0.06150    0.41786    1.000
    N1514    N        0.39247    0.03876    0.48093    1.000
    N1515    N        0.45745    0.01874    0.41671    1.000
    N1516    N        0.32856    0.02672    0.57148    1.000
    N1517    N        0.26321    0.03480    0.60686    1.000
    Si1518   Si       0.28491    0.03512    0.56954    1.000
    Si1519   Si       0.24792    0.02689    0.51232    1.000
    N1520    N        0.28973    0.03843    0.50029    1.000
    Si1521   Si       0.36472    0.05965    0.57066    1.000
    Si1522   Si       0.41490    0.03281    0.51845    1.000
    N1523    N        0.39003    0.02577    0.55206    1.000
    Si1524   Si       0.48113    0.03363    0.60615    1.000
    N1525    N        0.43662    0.02923    0.61651    1.000
    N1526    N        0.48340    0.03043    0.56329    1.000
    N1527    N        0.31850    0.01538    0.64614    1.000
    Si1528   Si       0.26668    0.02266    0.71351    1.000
    N1529    N        0.26221    0.04430    0.67828    1.000
    Si1530   Si       0.28796    0.04516    0.64314    1.000
    Si1531   Si       0.36063    0.02282    0.64292    1.000
    Si1532   Si       0.40946    0.06402    0.62050    1.000
    N1533    N        0.36490    0.06069    0.62060    1.000
    N1534    N        0.37846    0.02825    0.68220    1.000
    N1535    N        0.43746    0.04115    0.71522    1.000
    Si1536   Si       0.40214    0.06357    0.69457    1.000
    Si1537   Si       0.31447    0.02459    0.82968    1.000
    N1538    N        0.35136    0.03814    0.84691    1.000
    N1539    N        0.28806    0.05897    0.81845    1.000
    N1540    N        0.32759    0.05448    0.75338    1.000
    N1541    N        0.25993    0.04219    0.75196    1.000
    Si1542   Si       0.32756    0.01127    0.75205    1.000
    Si1543   Si       0.29148    0.06015    0.77585    1.000
    Si1544   Si       0.24643    0.06650    0.82743    1.000
    N1545    N        0.29350    0.00720    0.86380    1.000
    Si1546   Si       0.38920    0.04263    0.82539    1.000
    N1547    N        0.46766    0.03666    0.79764    1.000
    N1548    N        0.47357    0.02729    0.86325    1.000
    Si1549   Si       0.46444    0.05971    0.83519    1.000
    Si1550   Si       0.43246    0.01619    0.86537    1.000
    N1551    N        0.42316    0.06366    0.84727    1.000
    N1552    N        0.33136    0.01506    0.98367    1.000
    Si1553   Si       0.34426    0.06008    0.88570    1.000
    Si1554   Si       0.24776    0.02838    0.95694    1.000
    N1555    N        0.34744    0.04008    0.92208    1.000
    Si1556   Si       0.27615    0.04081    0.88690    1.000
    Si1557   Si       0.31413    0.03915    0.95051    1.000
    N1558    N        0.27900    0.02719    0.92710    1.000
    Si1559   Si       0.44329    0.01028    0.97124    1.000
    N1560    N        0.41379    0.03497    0.90188    1.000
    Si1561   Si       0.38470    0.01656    0.92809    1.000
    N1562    N        0.47924    0.03651    0.96813    1.000
    Si1563   Si       0.37014    0.03153    0.99381    1.000
    N1564    N        0.39951    0.01873    0.96786    1.000
    Si1565   Si       0.32545    0.08288    0.00775    1.000
    N1566    N        0.24705    0.07513    0.05970    1.000
    N1567    N        0.25804    0.12237    0.99712    1.000
    N1568    N        0.40964    0.10863    0.10794    1.000
    Si1569   Si       0.42431    0.10859    0.06707    1.000
    N1570    N        0.39290    0.11316    0.03693    1.000
    N1571    N        0.43371    0.07490    0.99918    1.000
    Si1572   Si       0.39547    0.06964    0.11944    1.000
    Si1573   Si       0.39846    0.10111    0.99479    1.000
    Si1574   Si       0.47484    0.06876    0.99587    1.000
    Si1575   Si       0.25448    0.06528    0.13802    1.000
    N1576    N        0.24560    0.11191    0.22873    1.000
    N1577    N        0.25299    0.10791    0.14745    1.000
    Si1578   Si       0.35836    0.07931    0.18703    1.000
    N1579    N        0.29558    0.06780    0.23189    1.000
    N1580    N        0.47506    0.11397    0.12837    1.000
    Si1581   Si       0.46423    0.07725    0.21856    1.000
    N1582    N        0.42465    0.09708    0.22951    1.000
    N1583    N        0.36721    0.12362    0.19550    1.000
    Si1584   Si       0.33593    0.10748    0.30046    1.000
    Si1585   Si       0.27367    0.09453    0.25786    1.000
    N1586    N        0.30318    0.12165    0.27408    1.000
    N1587    N        0.26509    0.07142    0.29457    1.000
    Si1588   Si       0.39429    0.07767    0.25275    1.000
    N1589    N        0.37572    0.10712    0.28175    1.000
    N1590    N        0.39568    0.08202    0.34393    1.000
    N1591    N        0.44428    0.09881    0.29683    1.000
    Si1592   Si       0.46733    0.09124    0.34555    1.000
    Si1593   Si       0.40678    0.11012    0.31334    1.000
    Si1594   Si       0.30661    0.07247    0.44210    1.000
    N1595    N        0.32033    0.10095    0.41204    1.000
    N1596    N        0.32658    0.08810    0.47657    1.000
    N1597    N        0.26274    0.06858    0.44152    1.000
    Si1598   Si       0.35906    0.11947    0.43085    1.000
    Si1599   Si       0.23829    0.10663    0.44192    1.000
    Si1600   Si       0.40202    0.09117    0.38614    1.000
    N1601    N        0.44435    0.07436    0.45461    1.000
    Si1602   Si       0.40095    0.07605    0.45882    1.000
    Si1603   Si       0.46334    0.08669    0.48972    1.000
    N1604    N        0.38232    0.07087    0.42028    1.000
    N1605    N        0.44646    0.08412    0.38524    1.000
    N1606    N        0.38935    0.11799    0.46313    1.000
    Si1607   Si       0.25763    0.11246    0.54490    1.000
    N1608    N        0.34642    0.08669    0.53951    1.000
    Si1609   Si       0.30584    0.08124    0.51498    1.000
    N1610    N        0.27765    0.07314    0.55213    1.000
    N1611    N        0.27893    0.11781    0.50850    1.000
    Si1612   Si       0.35908    0.12885    0.53044    1.000
    Si1613   Si       0.43126    0.09996    0.55171    1.000
    N1614    N        0.40570    0.08327    0.58232    1.000
    N1615    N        0.46840    0.11880    0.56387    1.000
    N1616    N        0.40260    0.12765    0.53333    1.000
    N1617    N        0.43688    0.07090    0.52126    1.000
    Si1618   Si       0.34324    0.09485    0.63836    1.000
    Si1619   Si       0.27200    0.11132    0.66512    1.000
    N1620    N        0.26404    0.10980    0.71101    1.000
    N1621    N        0.30102    0.08514    0.64607    1.000
    Si1622   Si       0.24521    0.08463    0.74283    1.000
    N1623    N        0.36342    0.10082    0.67553    1.000
    Si1624   Si       0.45096    0.11302    0.66897    1.000
    N1625    N        0.39179    0.08654    0.73107    1.000
    Si1626   Si       0.47102    0.06834    0.72087    1.000
    N1627    N        0.42169    0.08278    0.65799    1.000
    Si1628   Si       0.42256    0.11753    0.74200    1.000
    N1629    N        0.48176    0.08557    0.68267    1.000
    N1630    N        0.27301    0.09925    0.77357    1.000
    Si1631   Si       0.35935    0.08361    0.76050    1.000
    N1632    N        0.33968    0.12334    0.76074    1.000
    N1633    N        0.38046    0.07080    0.79497    1.000
    N1634    N        0.46154    0.10100    0.74782    1.000
    Si1635   Si       0.29777    0.11956    0.89207    1.000
    N1636    N        0.30043    0.07466    0.97167    1.000
    Si1637   Si       0.26793    0.10084    0.96171    1.000
    N1638    N        0.30430    0.07733    0.88874    1.000
    N1639    N        0.27417    0.12863    0.92790    1.000
    N1640    N        0.36380    0.07433    0.99034    1.000
    N1641    N        0.43344    0.11262    0.90153    1.000
    N1642    N        0.37348    0.09296    0.88514    1.000
    Si1643   Si       0.41354    0.07662    0.88739    1.000
    Si1644   Si       0.28700    0.14418    0.02023    1.000
    N1645    N        0.34739    0.15403    0.07732    1.000
    N1646    N        0.26218    0.14283    0.05427    1.000
    Si1647   Si       0.25083    0.17462    0.07987    1.000
    Si1648   Si       0.36039    0.14135    0.04046    1.000
    N1649    N        0.32544    0.12446    0.02103    1.000
    N1650    N        0.44583    0.17180    0.11735    1.000
    N1651    N        0.37330    0.17709    0.01732    1.000
    N1652    N        0.45867    0.13069    0.04977    1.000
    N1653    N        0.25631    0.16958    0.12169    1.000
    N1654    N        0.26963    0.17153    0.18460    1.000
    Si1655   Si       0.27761    0.14361    0.14848    1.000
    Si1656   Si       0.35045    0.15395    0.16956    1.000
    N1657    N        0.31875    0.13545    0.14707    1.000
    Si1658   Si       0.24046    0.15587    0.21556    1.000
    N1659    N        0.26758    0.18017    0.24531    1.000
    N1660    N        0.43342    0.13916    0.17912    1.000
    N1661    N        0.38098    0.16227    0.13952    1.000
    N1662    N        0.40420    0.16793    0.23482    1.000
    Si1663   Si       0.47616    0.14418    0.19418    1.000
    N1664    N        0.47244    0.16549    0.23353    1.000
    Si1665   Si       0.48514    0.15678    0.12556    1.000
    Si1666   Si       0.40619    0.13251    0.21203    1.000
    Si1667   Si       0.42271    0.14078    0.13587    1.000
    Si1668   Si       0.29839    0.16309    0.27268    1.000
    Si1669   Si       0.30746    0.16191    0.34821    1.000
    N1670    N        0.29251    0.17596    0.31241    1.000
    N1671    N        0.33341    0.12818    0.33934    1.000
    N1672    N        0.32995    0.17917    0.24991    1.000
    Si1673   Si       0.36700    0.14969    0.35947    1.000
    N1674    N        0.46820    0.13836    0.34752    1.000
    N1675    N        0.39708    0.15037    0.32644    1.000
    Si1676   Si       0.48296    0.16626    0.31675    1.000
    N1677    N        0.45012    0.18402    0.29526    1.000
    Si1678   Si       0.43956    0.18479    0.25306    1.000
    Si1679   Si       0.29734    0.13902    0.41511    1.000
    N1680    N        0.33388    0.15705    0.43172    1.000
    Si1681   Si       0.27215    0.15509    0.48558    1.000
    N1682    N        0.26751    0.13878    0.44528    1.000
    N1683    N        0.27993    0.15753    0.38080    1.000
    N1684    N        0.30306    0.18344    0.48735    1.000
    Si1685   Si       0.48495    0.16017    0.49293    1.000
    N1686    N        0.45592    0.12895    0.49492    1.000
    N1687    N        0.41572    0.17853    0.47265    1.000
    N1688    N        0.38431    0.12912    0.39233    1.000
    Si1689   Si       0.41384    0.14016    0.49286    1.000
    Si1690   Si       0.47733    0.17007    0.37907    1.000
    N1691    N        0.44395    0.18626    0.40138    1.000
    N1692    N        0.32535    0.14699    0.55135    1.000
    Si1693   Si       0.30616    0.14286    0.58820    1.000
    N1694    N        0.26409    0.13676    0.58068    1.000
    N1695    N        0.33696    0.13171    0.61802    1.000
    Si1696   Si       0.25293    0.17801    0.58847    1.000
    Si1697   Si       0.32535    0.18172    0.52387    1.000
    N1698    N        0.36192    0.16652    0.50727    1.000
    Si1699   Si       0.47784    0.16025    0.56567    1.000
    N1700    N        0.45347    0.18065    0.59818    1.000
    Si1701   Si       0.35998    0.16688    0.62668    1.000
    N1702    N        0.28284    0.15391    0.66923    1.000
    Si1703   Si       0.26301    0.15600    0.70855    1.000
    Si1704   Si       0.48631    0.17454    0.62992    1.000
    N1705    N        0.39791    0.15658    0.64686    1.000
    Si1706   Si       0.38735    0.13504    0.68419    1.000
    N1707    N        0.42802    0.13511    0.70205    1.000
    N1708    N        0.48168    0.16876    0.73273    1.000
    Si1709   Si       0.45559    0.17038    0.69847    1.000
    N1710    N        0.36829    0.16889    0.70972    1.000
    N1711    N        0.47179    0.15105    0.66228    1.000
    N1712    N        0.30263    0.15060    0.81032    1.000
    Si1713   Si       0.33234    0.16413    0.83786    1.000
    Si1714   Si       0.26504    0.15752    0.83183    1.000
    Si1715   Si       0.29888    0.13312    0.77099    1.000
    N1716    N        0.26617    0.12970    0.86482    1.000
    N1717    N        0.28640    0.16446    0.74485    1.000
    Si1718   Si       0.36201    0.15793    0.75039    1.000
    Si1719   Si       0.47712    0.13446    0.82753    1.000
    N1720    N        0.37207    0.14708    0.83383    1.000
    N1721    N        0.40102    0.14600    0.76516    1.000
    N1722    N        0.44141    0.15742    0.82019    1.000
    Si1723   Si       0.40012    0.16113    0.80600    1.000
    N1724    N        0.48378    0.15293    0.86913    1.000
    N1725    N        0.32868    0.14988    0.88153    1.000
    N1726    N        0.33325    0.17360    0.95274    1.000
    Si1727   Si       0.34283    0.18222    0.90988    1.000
    Si1728   Si       0.24244    0.13848    0.90018    1.000
    Si1729   Si       0.47040    0.13250    0.90452    1.000
    Si1730   Si       0.41564    0.15615    0.93372    1.000
    Si1731   Si       0.37111    0.13576    0.87631    1.000
    N1732    N        0.38296    0.16400    0.90516    1.000
    Si1733   Si       0.37207    0.16991    0.97431    1.000
    N1734    N        0.45846    0.16672    0.93126    1.000
    N1735    N        0.39578    0.13223    0.96501    1.000
    N1736    N        0.27488    0.20964    0.07194    1.000
    Si1737   Si       0.26939    0.21719    0.03036    1.000
    N1738    N        0.34402    0.21388    0.11285    1.000
    N1739    N        0.29148    0.18477    0.01058    1.000
    N1740    N        0.40092    0.19879    0.07696    1.000
    Si1741   Si       0.43859    0.20828    0.09478    1.000
    N1742    N        0.46316    0.21595    0.06045    1.000
    Si1743   Si       0.38825    0.21303    0.03736    1.000
    N1744    N        0.41715    0.23502    0.01376    1.000
    Si1745   Si       0.36910    0.18091    0.10240    1.000
    N1746    N        0.43526    0.24469    0.11687    1.000
    N1747    N        0.33197    0.19022    0.18155    1.000
    N1748    N        0.30345    0.23675    0.21938    1.000
    Si1749   Si       0.30219    0.19170    0.21458    1.000
    Si1750   Si       0.32377    0.22187    0.15040    1.000
    N1751    N        0.28167    0.23013    0.13816    1.000
    Si1752   Si       0.25669    0.20081    0.15414    1.000
    N1753    N        0.37102    0.23342    0.23098    1.000
    Si1754   Si       0.36888    0.19251    0.24415    1.000
    Si1755   Si       0.27187    0.21442    0.31589    1.000
    N1756    N        0.26907    0.22604    0.35751    1.000
    N1757    N        0.34442    0.18764    0.36254    1.000
    Si1758   Si       0.36378    0.22497    0.35872    1.000
    N1759    N        0.40723    0.21416    0.34940    1.000
    N1760    N        0.38686    0.20579    0.28454    1.000
    Si1761   Si       0.48625    0.23843    0.34216    1.000
    Si1762   Si       0.41170    0.18934    0.31552    1.000
    N1763    N        0.44020    0.22913    0.25026    1.000
    Si1764   Si       0.39946    0.24230    0.26179    1.000
    Si1765   Si       0.32667    0.19411    0.45081    1.000
    Si1766   Si       0.26763    0.20087    0.39460    1.000
    N1767    N        0.29612    0.21412    0.42633    1.000
    N1768    N        0.36302    0.21778    0.45835    1.000
    N1769    N        0.25027    0.24342    0.46874    1.000
    Si1770   Si       0.44145    0.19388    0.44304    1.000
    Si1771   Si       0.38403    0.20120    0.49152    1.000
    N1772    N        0.48189    0.18677    0.45826    1.000
    N1773    N        0.42839    0.23538    0.43510    1.000
    Si1774   Si       0.42613    0.22378    0.38799    1.000
    N1775    N        0.32768    0.21673    0.55018    1.000
    Si1776   Si       0.30055    0.22581    0.58326    1.000
    N1777    N        0.25915    0.22313    0.57063    1.000
    N1778    N        0.29728    0.18475    0.60239    1.000
    Si1779   Si       0.36983    0.21704    0.56204    1.000
    N1780    N        0.39414    0.22344    0.52641    1.000
    N1781    N        0.37954    0.18699    0.59159    1.000
    Si1782   Si       0.41522    0.18453    0.61751    1.000
    N1783    N        0.24574    0.21900    0.71951    1.000
    Si1784   Si       0.27758    0.23290    0.69626    1.000
    N1785    N        0.31357    0.21728    0.71246    1.000
    Si1786   Si       0.35155    0.20545    0.69439    1.000
    N1787    N        0.27675    0.22504    0.65401    1.000
    N1788    N        0.33958    0.19517    0.65315    1.000
    Si1789   Si       0.29629    0.18808    0.64542    1.000
    N1790    N        0.45193    0.21132    0.69313    1.000
    N1791    N        0.37927    0.23590    0.70142    1.000
    Si1792   Si       0.41674    0.23044    0.68204    1.000
    N1793    N        0.41055    0.22321    0.64027    1.000
    N1794    N        0.33974    0.20756    0.83761    1.000
    Si1795   Si       0.30449    0.22629    0.86122    1.000
    N1796    N        0.27610    0.19437    0.85192    1.000
    N1797    N        0.34385    0.19265    0.77028    1.000
    N1798    N        0.28191    0.23563    0.77325    1.000
    Si1799   Si       0.30502    0.20404    0.75292    1.000
    Si1800   Si       0.36093    0.21726    0.80129    1.000
    Si1801   Si       0.24296    0.24037    0.76049    1.000
    Si1802   Si       0.44511    0.20059    0.81177    1.000
    N1803    N        0.46989    0.21977    0.78225    1.000
    N1804    N        0.46212    0.21750    0.84943    1.000
    N1805    N        0.40312    0.20643    0.80603    1.000
    N1806    N        0.27330    0.22217    0.95627    1.000
    N1807    N        0.32323    0.21976    0.90295    1.000
    Si1808   Si       0.30665    0.20063    0.97188    1.000
    N1809    N        0.33413    0.23276    0.98135    1.000
    Si1810   Si       0.24327    0.21349    0.87350    1.000
    Si1811   Si       0.41560    0.23507    0.96935    1.000
    Si1812   Si       0.47622    0.20291    0.93898    1.000
    N1813    N        0.45574    0.24048    0.95326    1.000
    N1814    N        0.40166    0.19540    0.95722    1.000
    N1815    N        0.31096    0.27390    0.09204    1.000
    N1816    N        0.28969    0.25567    0.02539    1.000
    Si1817   Si       0.26114    0.28602    0.03764    1.000
    Si1818   Si       0.34817    0.25081    0.09042    1.000
    Si1819   Si       0.33112    0.25608    0.01925    1.000
    N1820    N        0.24452    0.26725    0.07628    1.000
    N1821    N        0.35123    0.28936    0.00130    1.000
    Si1822   Si       0.27499    0.24654    0.09717    1.000
    N1823    N        0.35549    0.23840    0.04930    1.000
    N1824    N        0.42904    0.28475    0.05790    1.000
    Si1825   Si       0.41842    0.28206    0.10351    1.000
    N1826    N        0.37720    0.27897    0.10813    1.000
    Si1827   Si       0.44938    0.25227    0.03907    1.000
    N1828    N        0.48385    0.26475    0.01494    1.000
    N1829    N        0.34334    0.25722    0.16795    1.000
    N1830    N        0.24565    0.28761    0.18443    1.000
    Si1831   Si       0.34185    0.25858    0.21015    1.000
    N1832    N        0.28401    0.29700    0.24856    1.000
    N1833    N        0.34874    0.30031    0.22187    1.000
    Si1834   Si       0.36189    0.29156    0.14870    1.000
    N1835    N        0.46977    0.28895    0.24770    1.000
    Si1836   Si       0.31405    0.27174    0.31331    1.000
    N1837    N        0.34942    0.26038    0.33669    1.000
    N1838    N        0.28681    0.29010    0.34024    1.000
    Si1839   Si       0.28059    0.25378    0.25023    1.000
    N1840    N        0.29217    0.24249    0.29089    1.000
    Si1841   Si       0.26430    0.26717    0.36920    1.000
    N1842    N        0.33719    0.30111    0.29061    1.000
    N1843    N        0.40239    0.28053    0.27962    1.000
    Si1844   Si       0.37541    0.28853    0.31172    1.000
    N1845    N        0.48103    0.25935    0.30433    1.000
    Si1846   Si       0.47640    0.24906    0.26358    1.000
    Si1847   Si       0.48523    0.30063    0.31484    1.000
    Si1848   Si       0.36761    0.28717    0.37457    1.000
    Si1849   Si       0.35331    0.29157    0.47947    1.000
    N1850    N        0.28343    0.27727    0.40693    1.000
    N1851    N        0.31343    0.27573    0.46958    1.000
    Si1852   Si       0.28686    0.25239    0.44470    1.000
    N1853    N        0.37676    0.24949    0.39581    1.000
    N1854    N        0.45721    0.29978    0.43577    1.000
    Si1855   Si       0.38562    0.24618    0.43627    1.000
    N1856    N        0.47178    0.25657    0.48633    1.000
    N1857    N        0.45574    0.25147    0.37153    1.000
    Si1858   Si       0.48690    0.27982    0.38634    1.000
    N1859    N        0.38479    0.28652    0.45044    1.000
    Si1860   Si       0.46481    0.25916    0.44536    1.000
    Si1861   Si       0.34971    0.28391    0.59650    1.000
    N1862    N        0.31441    0.25645    0.60815    1.000
    N1863    N        0.24511    0.27346    0.62303    1.000
    N1864    N        0.44638    0.27472    0.55009    1.000
    Si1865   Si       0.40455    0.26305    0.54058    1.000
    N1866    N        0.37927    0.25703    0.57938    1.000
    N1867    N        0.37852    0.28718    0.51546    1.000
    Si1868   Si       0.48145    0.26937    0.52615    1.000
    Si1869   Si       0.40270    0.26083    0.62025    1.000
    Si1870   Si       0.45836    0.29792    0.58525    1.000
    N1871    N        0.44206    0.28015    0.62146    1.000
    Si1872   Si       0.28675    0.27104    0.64292    1.000
    N1873    N        0.27367    0.27528    0.68914    1.000
    Si1874   Si       0.24399    0.29723    0.70966    1.000
    N1875    N        0.37343    0.29031    0.63410    1.000
    N1876    N        0.42393    0.27284    0.68551    1.000
    Si1877   Si       0.45449    0.28993    0.66097    1.000
    Si1878   Si       0.38890    0.27742    0.71278    1.000
    N1879    N        0.29721    0.26210    0.83683    1.000
    N1880    N        0.34914    0.25951    0.79313    1.000
    Si1881   Si       0.30736    0.26572    0.79397    1.000
    Si1882   Si       0.27227    0.29683    0.83349    1.000
    N1883    N        0.29026    0.30633    0.79459    1.000
    Si1884   Si       0.37394    0.29244    0.78573    1.000
    N1885    N        0.45401    0.27880    0.82014    1.000
    Si1886   Si       0.45583    0.25922    0.86027    1.000
    N1887    N        0.40334    0.29005    0.75277    1.000
    Si1888   Si       0.48461    0.25752    0.79701    1.000
    Si1889   Si       0.34981    0.26644    0.96191    1.000
    N1890    N        0.31880    0.28289    0.93599    1.000
    Si1891   Si       0.29500    0.24602    0.92542    1.000
    N1892    N        0.26925    0.24215    0.89151    1.000
    N1893    N        0.48639    0.28039    0.88130    1.000
    N1894    N        0.42056    0.26306    0.88280    1.000
    N1895    N        0.39023    0.26444    0.94694    1.000
    Si1896   Si       0.40240    0.28737    0.91270    1.000
    N1897    N        0.27709    0.32490    0.05041    1.000
    Si1898   Si       0.25673    0.34217    0.01628    1.000
    Si1899   Si       0.29514    0.31673    0.08670    1.000
    N1900    N        0.33120    0.34063    0.08291    1.000
    N1901    N        0.24610    0.30238    0.00068    1.000
    Si1902   Si       0.35614    0.35986    0.05241    1.000
    N1903    N        0.39854    0.35132    0.06154    1.000
    Si1904   Si       0.42654    0.32461    0.04096    1.000
    N1905    N        0.46384    0.34566    0.05496    1.000
    Si1906   Si       0.47540    0.32075    0.09203    1.000
    N1907    N        0.41750    0.31807    0.99931    1.000
    N1908    N        0.43921    0.31553    0.11850    1.000
    N1909    N        0.26641    0.32044    0.12681    1.000
    Si1910   Si       0.25559    0.31242    0.21900    1.000
    Si1911   Si       0.29186    0.34095    0.15549    1.000
    N1912    N        0.27903    0.34093    0.19627    1.000
    N1913    N        0.33343    0.32517    0.14822    1.000
    N1914    N        0.39677    0.30347    0.17204    1.000
    Si1915   Si       0.38269    0.32241    0.20815    1.000
    N1916    N        0.41644    0.33238    0.23609    1.000
    N1917    N        0.47555    0.30446    0.17348    1.000
    Si1918   Si       0.43698    0.32047    0.16250    1.000
    Si1919   Si       0.27608    0.33375    0.33584    1.000
    Si1920   Si       0.32285    0.31812    0.25530    1.000
    N1921    N        0.31840    0.36099    0.25375    1.000
    N1922    N        0.23961    0.33289    0.30716    1.000
    N1923    N        0.47311    0.31281    0.35592    1.000
    Si1924   Si       0.43341    0.32901    0.34349    1.000
    N1925    N        0.44811    0.32387    0.30104    1.000
    N1926    N        0.39531    0.30530    0.34650    1.000
    Si1927   Si       0.43322    0.30757    0.26521    1.000
    N1928    N        0.24375    0.30948    0.46153    1.000
    N1929    N        0.35249    0.33489    0.48698    1.000
    N1930    N        0.30229    0.33405    0.44403    1.000
    N1931    N        0.27149    0.34069    0.37805    1.000
    Si1932   Si       0.29794    0.31698    0.40471    1.000
    N1933    N        0.34089    0.31864    0.39049    1.000
    Si1934   Si       0.28398    0.31013    0.47603    1.000
    Si1935   Si       0.36450    0.35427    0.40136    1.000
    N1936    N        0.42674    0.33074    0.48655    1.000
    Si1937   Si       0.41736    0.31433    0.44650    1.000
    N1938    N        0.40600    0.34510    0.41817    1.000
    Si1939   Si       0.48327    0.33513    0.42946    1.000
    Si1940   Si       0.46825    0.33912    0.49741    1.000
    Si1941   Si       0.30558    0.33402    0.55346    1.000
    N1942    N        0.34123    0.31996    0.57762    1.000
    N1943    N        0.27406    0.32228    0.58240    1.000
    N1944    N        0.28972    0.32084    0.51612    1.000
    Si1945   Si       0.38997    0.32879    0.51022    1.000
    N1946    N        0.44597    0.34064    0.58984    1.000
    N1947    N        0.39676    0.35436    0.54450    1.000
    Si1948   Si       0.29021    0.34025    0.62150    1.000
    N1949    N        0.35828    0.36060    0.65547    1.000
    N1950    N        0.25928    0.33664    0.71991    1.000
    Si1951   Si       0.35059    0.31675    0.65963    1.000
    N1952    N        0.30969    0.30952    0.64428    1.000
    Si1953   Si       0.36147    0.33842    0.73222    1.000
    N1954    N        0.26652    0.36097    0.65223    1.000
    N1955    N        0.36097    0.30725    0.69944    1.000
    N1956    N        0.40050    0.35625    0.74260    1.000
    N1957    N        0.45602    0.33218    0.66187    1.000
    N1958    N        0.46283    0.32290    0.73216    1.000
    Si1959   Si       0.47577    0.34645    0.69822    1.000
    Si1960   Si       0.45584    0.35957    0.62790    1.000
    Si1961   Si       0.32016    0.33999    0.79499    1.000
    N1962    N        0.33163    0.34269    0.83623    1.000
    N1963    N        0.35026    0.32114    0.76821    1.000
    N1964    N        0.27156    0.32350    0.86681    1.000
    Si1965   Si       0.30371    0.35210    0.86755    1.000
    Si1966   Si       0.36810    0.32903    0.85597    1.000
    N1967    N        0.44856    0.34167    0.79207    1.000
    Si1968   Si       0.43328    0.31652    0.82472    1.000
    N1969    N        0.39073    0.31083    0.82223    1.000
    Si1970   Si       0.42780    0.32540    0.75519    1.000
    N1971    N        0.44937    0.33313    0.86076    1.000
    Si1972   Si       0.48550    0.32612    0.76891    1.000
    Si1973   Si       0.34052    0.32003    0.92341    1.000
    N1974    N        0.32075    0.35327    0.90806    1.000
    N1975    N        0.23955    0.33063    0.93460    1.000
    Si1976   Si       0.42795    0.34822    0.89392    1.000
    N1977    N        0.36693    0.33769    0.95264    1.000
    N1978    N        0.42878    0.31966    0.92907    1.000
    N1979    N        0.36775    0.30479    0.89300    1.000
    Si1980   Si       0.43789    0.34084    0.96835    1.000
    N1981    N        0.48423    0.34372    0.97274    1.000
    Si1982   Si       0.37445    0.32330    0.99141    1.000
    N1983    N        0.24301    0.41249    0.09975    1.000
    N1984    N        0.29742    0.41016    0.03502    1.000
    N1985    N        0.35698    0.36039    0.00957    1.000
    Si1986   Si       0.33927    0.36012    0.12124    1.000
    N1987    N        0.36005    0.39974    0.07225    1.000
    N1988    N        0.47525    0.40595    0.01909    1.000
    Si1989   Si       0.47094    0.38714    0.05989    1.000
    N1990    N        0.44067    0.39776    0.08933    1.000
    Si1991   Si       0.39951    0.38392    0.08984    1.000
    Si1992   Si       0.26598    0.38131    0.20859    1.000
    N1993    N        0.30086    0.37777    0.13460    1.000
    Si1994   Si       0.26911    0.40705    0.13494    1.000
    N1995    N        0.30202    0.40540    0.20700    1.000
    N1996    N        0.24541    0.39426    0.17025    1.000
    Si1997   Si       0.33793    0.38585    0.22479    1.000
    N1998    N        0.36107    0.41401    0.24622    1.000
    Si1999   Si       0.44301    0.36430    0.22219    1.000
    N2000    N        0.36493    0.36235    0.19900    1.000
    Si2001   Si       0.39426    0.38161    0.17020    1.000
    N2002    N        0.38138    0.37546    0.12925    1.000
    N2003    N        0.43151    0.36054    0.18147    1.000
    N2004    N        0.44136    0.39746    0.25055    1.000
    Si2005   Si       0.28768    0.37933    0.27608    1.000
    N2006    N        0.29687    0.36740    0.31863    1.000
    Si2007   Si       0.29414    0.40952    0.33192    1.000
    N2008    N        0.25307    0.37215    0.24983    1.000
    N2009    N        0.36067    0.38350    0.37019    1.000
    N2010    N        0.39008    0.38904    0.30188    1.000
    Si2011   Si       0.41488    0.40136    0.33480    1.000
    Si2012   Si       0.40061    0.40990    0.26595    1.000
    N2013    N        0.42729    0.36852    0.35931    1.000
    Si2014   Si       0.46943    0.41413    0.27818    1.000
    N2015    N        0.45038    0.41759    0.31692    1.000
    N2016    N        0.27594    0.40977    0.37147    1.000
    Si2017   Si       0.25230    0.37600    0.38787    1.000
    N2018    N        0.24751    0.37488    0.43147    1.000
    N2019    N        0.29956    0.39186    0.48114    1.000
    N2020    N        0.35293    0.38111    0.43367    1.000
    Si2021   Si       0.25989    0.40450    0.46239    1.000
    Si2022   Si       0.32670    0.36347    0.46263    1.000
    Si2023   Si       0.43027    0.37723    0.40245    1.000
    N2024    N        0.41536    0.41335    0.42302    1.000
    N2025    N        0.47404    0.37305    0.40975    1.000
    Si2026   Si       0.37169    0.41938    0.42855    1.000
    Si2027   Si       0.30986    0.40275    0.52126    1.000
    N2028    N        0.31070    0.37624    0.60683    1.000
    N2029    N        0.32552    0.37005    0.54373    1.000
    N2030    N        0.25300    0.41123    0.60906    1.000
    Si2031   Si       0.28902    0.40973    0.58560    1.000
    Si2032   Si       0.35987    0.35948    0.57100    1.000
    N2033    N        0.27528    0.41606    0.54423    1.000
    Si2034   Si       0.40988    0.41418    0.60827    1.000
    N2035    N        0.46203    0.37242    0.52509    1.000
    N2036    N        0.37467    0.38956    0.59718    1.000
    N2037    N        0.43192    0.40946    0.57046    1.000
    Si2038   Si       0.47443    0.41401    0.51704    1.000
    Si2039   Si       0.43449    0.36961    0.55817    1.000
    Si2040   Si       0.34350    0.39487    0.62784    1.000
    N2041    N        0.34229    0.37620    0.72011    1.000
    N2042    N        0.25872    0.40033    0.72001    1.000
    Si2043   Si       0.25129    0.36668    0.69168    1.000
    N2044    N        0.39887    0.40828    0.70207    1.000
    Si2045   Si       0.36270    0.39080    0.68491    1.000
    Si2046   Si       0.40046    0.39782    0.74489    1.000
    N2047    N        0.43127    0.39326    0.63923    1.000
    N2048    N        0.47054    0.38947    0.70157    1.000
    Si2049   Si       0.43596    0.40895    0.68251    1.000
    N2050    N        0.30268    0.37472    0.77391    1.000
    Si2051   Si       0.33018    0.40256    0.75296    1.000
    Si2052   Si       0.26716    0.36630    0.75241    1.000
    N2053    N        0.29388    0.39360    0.86572    1.000
    N2054    N        0.23770    0.41051    0.83526    1.000
    N2055    N        0.36871    0.41088    0.77045    1.000
    Si2056   Si       0.45066    0.38661    0.80213    1.000
    Si2057   Si       0.39538    0.40310    0.86273    1.000
    N2058    N        0.42539    0.39873    0.83468    1.000
    N2059    N        0.43425    0.41213    0.76997    1.000
    Si2060   Si       0.25420    0.40130    0.87754    1.000
    Si2061   Si       0.29149    0.40572    0.99253    1.000
    Si2062   Si       0.31052    0.39520    0.92474    1.000
    N2063    N        0.26886    0.40088    0.92564    1.000
    N2064    N        0.32366    0.39522    0.96500    1.000
    N2065    N        0.26557    0.37212    0.98636    1.000
    Si2066   Si       0.24473    0.37030    0.94719    1.000
    Si2067   Si       0.36406    0.37991    0.97283    1.000
    Si2068   Si       0.48750    0.36271    0.93249    1.000
    N2069    N        0.42281    0.37930    0.98019    1.000
    N2070    N        0.45192    0.37966    0.91191    1.000
    N2071    N        0.38988    0.36245    0.87683    1.000
    Si2072   Si       0.41553    0.42079    0.98508    1.000
    Si2073   Si       0.44232    0.42263    0.92172    1.000
    N2074    N        0.30191    0.44183    0.09005    1.000
    Si2075   Si       0.26430    0.43241    0.06598    1.000
    N2076    N        0.35127    0.46026    0.03715    1.000
    Si2077   Si       0.32897    0.42776    0.05947    1.000
    N2078    N        0.24865    0.47526    0.07275    1.000
    N2079    N        0.40180    0.45207    0.09452    1.000
    Si2080   Si       0.44303    0.43960    0.09845    1.000
    Si2081   Si       0.39152    0.45961    0.05241    1.000
    N2082    N        0.47200    0.45471    0.07185    1.000
    N2083    N        0.41806    0.43919    0.02527    1.000
    Si2084   Si       0.46024    0.44758    0.02971    1.000
    Si2085   Si       0.30531    0.46712    0.12351    1.000
    Si2086   Si       0.28379    0.44460    0.19617    1.000
    N2087    N        0.25182    0.44444    0.22559    1.000
    N2088    N        0.34210    0.46576    0.14564    1.000
    N2089    N        0.27923    0.44662    0.15183    1.000
    N2090    N        0.40568    0.42152    0.18046    1.000
    Si2091   Si       0.37921    0.47580    0.12478    1.000
    N2092    N        0.46228    0.45592    0.13451    1.000
    Si2093   Si       0.40911    0.46194    0.19590    1.000
    N2094    N        0.44326    0.47605    0.21799    1.000
    N2095    N        0.32724    0.43720    0.33366    1.000
    Si2096   Si       0.24452    0.44187    0.26983    1.000
    Si2097   Si       0.35679    0.42610    0.36288    1.000
    N2098    N        0.27491    0.41856    0.29253    1.000
    Si2099   Si       0.36446    0.45771    0.25147    1.000
    N2100    N        0.40349    0.45269    0.26917    1.000
    Si2101   Si       0.47162    0.44492    0.34137    1.000
    N2102    N        0.39931    0.43684    0.35447    1.000
    N2103    N        0.47941    0.45638    0.27057    1.000
    Si2104   Si       0.43986    0.47311    0.26095    1.000
    Si2105   Si       0.27066    0.47341    0.46638    1.000
    Si2106   Si       0.34873    0.45949    0.48860    1.000
    N2107    N        0.31355    0.46654    0.46331    1.000
    N2108    N        0.25986    0.44125    0.43862    1.000
    N2109    N        0.35003    0.44673    0.40193    1.000
    Si2110   Si       0.26573    0.44587    0.39642    1.000
    Si2111   Si       0.42388    0.43415    0.46520    1.000
    N2112    N        0.38042    0.43979    0.46567    1.000
    N2113    N        0.44905    0.46234    0.44141    1.000
    Si2114   Si       0.43393    0.44935    0.40430    1.000
    N2115    N        0.46526    0.43210    0.38249    1.000
    N2116    N        0.32402    0.43677    0.59101    1.000
    N2117    N        0.33539    0.43691    0.52279    1.000
    Si2118   Si       0.34745    0.45360    0.55960    1.000
    N2119    N        0.24920    0.46974    0.50445    1.000
    N2120    N        0.43574    0.43247    0.50696    1.000
    Si2121   Si       0.42874    0.44701    0.54795    1.000
    N2122    N        0.39039    0.46393    0.55813    1.000
    N2123    N        0.46137    0.47263    0.55750    1.000
    N2124    N        0.48592    0.43728    0.61214    1.000
    N2125    N        0.31519    0.43833    0.73531    1.000
    Si2126   Si       0.28143    0.43776    0.70918    1.000
    Si2127   Si       0.34050    0.46345    0.67817    1.000
    N2128    N        0.25062    0.46021    0.73046    1.000
    N2129    N        0.29632    0.46484    0.67962    1.000
    N2130    N        0.34487    0.42232    0.66233    1.000
    Si2131   Si       0.33093    0.47788    0.74814    1.000
    N2132    N        0.42937    0.47362    0.73491    1.000
    Si2133   Si       0.46250    0.47674    0.70951    1.000
    N2134    N        0.41278    0.45490    0.62513    1.000
    N2135    N        0.45605    0.44749    0.67625    1.000
    Si2136   Si       0.45572    0.45879    0.63464    1.000
    N2137    N        0.29909    0.45908    0.85224    1.000
    Si2138   Si       0.32451    0.42564    0.86356    1.000
    N2139    N        0.33497    0.46535    0.79263    1.000
    N2140    N        0.36190    0.41903    0.84066    1.000
    N2141    N        0.26336    0.47770    0.79326    1.000
    Si2142   Si       0.37079    0.43936    0.80290    1.000
    N2143    N        0.40413    0.46694    0.80383    1.000
    Si2144   Si       0.43493    0.45642    0.77295    1.000
    N2145    N        0.47509    0.46823    0.78359    1.000
    N2146    N        0.23979    0.44318    0.88869    1.000
    N2147    N        0.27617    0.44626    0.97977    1.000
    Si2148   Si       0.25383    0.44184    0.93524    1.000
    N2149    N        0.33669    0.42623    0.90616    1.000
    N2150    N        0.28340    0.47045    0.92439    1.000
    Si2151   Si       0.46729    0.47540    0.87510    1.000
    N2152    N        0.38070    0.42116    0.96107    1.000
    N2153    N        0.40555    0.42539    0.89885    1.000
    Si2154   Si       0.37204    0.44296    0.92203    1.000
    N2155    N        0.44419    0.44414    0.96046    1.000
    N2156    N        0.47456    0.44801    0.90675    1.000
    Si2157   Si       0.47686    0.47469    0.97008    1.000
    Si2158   Si       0.25554    0.50639    0.04264    1.000
    N2159    N        0.29567    0.50295    0.02908    1.000
    Si2160   Si       0.33693    0.49710    0.01867    1.000
    N2161    N        0.30146    0.50978    0.11464    1.000
    N2162    N        0.36006    0.53535    0.02136    1.000
    Si2163   Si       0.26515    0.53163    0.11024    1.000
    N2164    N        0.36770    0.51094    0.10200    1.000
    N2165    N        0.40786    0.50003    0.04793    1.000
    Si2166   Si       0.40517    0.52423    0.08356    1.000
    N2167    N        0.44297    0.51938    0.10664    1.000
    Si2168   Si       0.40240    0.52604    0.01361    1.000
    Si2169   Si       0.47333    0.52870    0.00096    1.000
    N2170    N        0.47196    0.48521    0.01151    1.000
    Si2171   Si       0.34086    0.48923    0.18357    1.000
    N2172    N        0.34093    0.52877    0.16633    1.000
    Si2173   Si       0.33595    0.53179    0.12414    1.000
    N2174    N        0.30459    0.48175    0.20595    1.000
    Si2175   Si       0.23834    0.52868    0.23303    1.000
    Si2176   Si       0.31049    0.50300    0.24251    1.000
    Si2177   Si       0.48403    0.48701    0.20653    1.000
    N2178    N        0.40721    0.48446    0.15745    1.000
    Si2179   Si       0.44796    0.49572    0.14352    1.000
    N2180    N        0.47642    0.51186    0.17204    1.000
    N2181    N        0.37091    0.47429    0.21250    1.000
    N2182    N        0.29627    0.50831    0.32462    1.000
    Si2183   Si       0.26048    0.51187    0.29924    1.000
    N2184    N        0.27137    0.51443    0.25713    1.000
    Si2185   Si       0.33012    0.47587    0.31325    1.000
    N2186    N        0.33183    0.47593    0.27071    1.000
    N2187    N        0.44858    0.48118    0.33911    1.000
    N2188    N        0.36809    0.49327    0.32759    1.000
    N2189    N        0.43617    0.51246    0.27782    1.000
    Si2190   Si       0.44713    0.51868    0.31978    1.000
    Si2191   Si       0.37534    0.53615    0.32161    1.000
    Si2192   Si       0.40354    0.47870    0.35111    1.000
    N2193    N        0.26727    0.51441    0.45332    1.000
    Si2194   Si       0.27156    0.51997    0.40869    1.000
    N2195    N        0.34918    0.51459    0.43343    1.000
    Si2196   Si       0.34160    0.52930    0.47670    1.000
    N2197    N        0.29011    0.48113    0.39867    1.000
    Si2198   Si       0.32724    0.47751    0.42053    1.000
    Si2199   Si       0.40149    0.52185    0.49622    1.000
    N2200    N        0.40997    0.48781    0.39334    1.000
    N2201    N        0.41716    0.51659    0.45538    1.000
    N2202    N        0.48039    0.53027    0.43143    1.000
    Si2203   Si       0.39221    0.51482    0.42139    1.000
    Si2204   Si       0.45749    0.50181    0.45438    1.000
    N2205    N        0.47382    0.49499    0.49407    1.000
    N2206    N        0.33818    0.49626    0.57073    1.000
    N2207    N        0.28090    0.48553    0.61473    1.000
    Si2208   Si       0.26903    0.52548    0.60699    1.000
    Si2209   Si       0.32181    0.47823    0.60821    1.000
    N2210    N        0.31223    0.53292    0.50966    1.000
    Si2211   Si       0.32469    0.53315    0.55263    1.000
    N2212    N        0.24177    0.53830    0.51365    1.000
    N2213    N        0.41961    0.51992    0.53495    1.000
    Si2214   Si       0.46207    0.51077    0.53439    1.000
    Si2215   Si       0.38491    0.50897    0.56233    1.000
    N2216    N        0.39478    0.52078    0.60375    1.000
    N2217    N        0.36429    0.49790    0.49925    1.000
    N2218    N        0.35762    0.48369    0.71320    1.000
    N2219    N        0.34981    0.48501    0.64086    1.000
    Si2220   Si       0.26873    0.48611    0.65624    1.000
    N2221    N        0.26950    0.53162    0.65093    1.000
    N2222    N        0.30326    0.51156    0.74810    1.000
    Si2223   Si       0.39928    0.49831    0.71242    1.000
    N2224    N        0.47454    0.51739    0.70048    1.000
    N2225    N        0.47062    0.50009    0.63534    1.000
    Si2226   Si       0.39212    0.49132    0.63572    1.000
    Si2227   Si       0.45121    0.52635    0.66407    1.000
    N2228    N        0.41385    0.50457    0.67071    1.000
    N2229    N        0.39991    0.53522    0.73407    1.000
    N2230    N        0.30375    0.51833    0.82876    1.000
    Si2231   Si       0.26348    0.49593    0.75316    1.000
    Si2232   Si       0.30049    0.47951    0.81366    1.000
    N2233    N        0.24959    0.51098    0.87283    1.000
    Si2234   Si       0.40540    0.50229    0.82634    1.000
    N2235    N        0.37404    0.51788    0.85524    1.000
    N2236    N        0.43092    0.49042    0.86068    1.000
    N2237    N        0.41728    0.53337    0.79977    1.000
    N2238    N        0.27425    0.52248    0.96634    1.000
    N2239    N        0.33592    0.48777    0.97540    1.000
    Si2240   Si       0.29453    0.48325    0.96521    1.000
    Si2241   Si       0.35966    0.51258    0.94987    1.000
    Si2242   Si       0.27199    0.47318    0.88201    1.000
    Si2243   Si       0.47510    0.53200    0.91846    1.000
    N2244    N        0.47260    0.51707    0.95809    1.000
    N2245    N        0.37561    0.48666    0.91863    1.000
    N2246    N        0.43116    0.53188    0.90932    1.000
    N2247    N        0.39726    0.52420    0.96880    1.000
    Si2248   Si       0.40109    0.50593    0.88807    1.000
    Si2249   Si       0.34955    0.57674    0.01175    1.000
    N2250    N        0.30669    0.57808    0.00442    1.000
    N2251    N        0.25283    0.54139    0.06902    1.000
    Si2252   Si       0.24127    0.58464    0.06898    1.000
    N2253    N        0.34060    0.57312    0.11495    1.000
    Si2254   Si       0.43207    0.57639    0.04871    1.000
    N2255    N        0.40057    0.56542    0.07493    1.000
    N2256    N        0.46991    0.57451    0.06841    1.000
    N2257    N        0.43753    0.54813    0.01679    1.000
    Si2258   Si       0.47859    0.54301    0.09911    1.000
    Si2259   Si       0.36815    0.59092    0.08497    1.000
    N2260    N        0.27126    0.56923    0.13210    1.000
    Si2261   Si       0.26500    0.56817    0.17549    1.000
    Si2262   Si       0.33893    0.56005    0.19640    1.000
    N2263    N        0.30198    0.58193    0.19645    1.000
    N2264    N        0.33357    0.54003    0.23417    1.000
    N2265    N        0.23956    0.53417    0.19116    1.000
    N2266    N        0.48809    0.56688    0.13447    1.000
    N2267    N        0.41477    0.55387    0.21995    1.000
    N2268    N        0.36665    0.59166    0.18036    1.000
    Si2269   Si       0.40772    0.58812    0.19681    1.000
    Si2270   Si       0.34096    0.57019    0.26623    1.000
    N2271    N        0.34415    0.55774    0.34168    1.000
    N2272    N        0.27550    0.57895    0.34852    1.000
    N2273    N        0.30529    0.57463    0.28836    1.000
    Si2274   Si       0.30372    0.54327    0.34903    1.000
    Si2275   Si       0.41718    0.54801    0.26230    1.000
    N2276    N        0.44362    0.57945    0.27319    1.000
    N2277    N        0.37814    0.55307    0.28225    1.000
    Si2278   Si       0.47745    0.58560    0.30485    1.000
    N2279    N        0.47983    0.54637    0.32358    1.000
    N2280    N        0.41390    0.53868    0.34022    1.000
    Si2281   Si       0.34081    0.55639    0.41260    1.000
    N2282    N        0.32621    0.56992    0.45211    1.000
    N2283    N        0.26894    0.58357    0.48294    1.000
    N2284    N        0.30459    0.54253    0.39168    1.000
    Si2285   Si       0.27692    0.54069    0.48681    1.000
    N2286    N        0.26398    0.59243    0.41663    1.000
    N2287    N        0.37695    0.55870    0.49006    1.000
    N2288    N        0.45627    0.56984    0.47796    1.000
    Si2289   Si       0.46442    0.56970    0.43392    1.000
    N2290    N        0.38374    0.55460    0.40097    1.000
    N2291    N        0.44789    0.58125    0.39313    1.000
    Si2292   Si       0.41253    0.56900    0.37204    1.000
    N2293    N        0.29907    0.54772    0.58329    1.000
    Si2294   Si       0.30871    0.58375    0.60196    1.000
    N2295    N        0.24960    0.59721    0.55206    1.000
    N2296    N        0.36296    0.55526    0.55745    1.000
    Si2297   Si       0.37814    0.56209    0.59868    1.000
    Si2298   Si       0.37940    0.58247    0.52681    1.000
    N2299    N        0.40688    0.59642    0.60225    1.000
    N2300    N        0.30983    0.56703    0.69031    1.000
    Si2301   Si       0.27009    0.57215    0.66729    1.000
    Si2302   Si       0.30373    0.55336    0.73376    1.000
    Si2303   Si       0.34101    0.58880    0.66559    1.000
    N2304    N        0.34463    0.57496    0.62327    1.000
    N2305    N        0.44822    0.56745    0.65197    1.000
    Si2306   Si       0.48417    0.57913    0.63205    1.000
    N2307    N        0.35335    0.56733    0.81614    1.000
    N2308    N        0.32767    0.58646    0.75148    1.000
    N2309    N        0.24604    0.57436    0.84014    1.000
    Si2310   Si       0.33804    0.53980    0.84587    1.000
    N2311    N        0.30470    0.56671    0.86653    1.000
    Si2312   Si       0.27279    0.53974    0.85143    1.000
    N2313    N        0.26571    0.57298    0.74804    1.000
    Si2314   Si       0.39759    0.56965    0.81359    1.000
    Si2315   Si       0.42390    0.55435    0.76257    1.000
    N2316    N        0.41843    0.58176    0.84883    1.000
    N2317    N        0.40530    0.59164    0.77732    1.000
    N2318    N        0.46466    0.56210    0.75356    1.000
    N2319    N        0.27480    0.59219    0.94612    1.000
    Si2320   Si       0.29445    0.55991    0.96844    1.000
    N2321    N        0.33407    0.55003    0.94793    1.000
    Si2322   Si       0.35381    0.58642    0.94126    1.000
    Si2323   Si       0.41500    0.55419    0.94315    1.000
    N2324    N        0.38972    0.58096    0.91875    1.000
    N2325    N        0.43881    0.58345    0.96060    1.000
    Si2326   Si       0.24919    0.64399    0.02893    1.000
    N2327    N        0.29465    0.64474    0.02476    1.000
    Si2328   Si       0.30465    0.60808    0.04068    1.000
    N2329    N        0.27752    0.60476    0.07537    1.000
    Si2330   Si       0.27709    0.61199    0.11941    1.000
    N2331    N        0.34680    0.60207    0.04848    1.000
    N2332    N        0.42527    0.61191    0.02619    1.000
    N2333    N        0.38003    0.62037    0.11490    1.000
    N2334    N        0.43702    0.64826    0.08089    1.000
    Si2335   Si       0.43292    0.65234    0.03849    1.000
    Si2336   Si       0.23869    0.60724    0.22961    1.000
    N2337    N        0.24167    0.63928    0.12717    1.000
    Si2338   Si       0.34766    0.60643    0.14169    1.000
    N2339    N        0.31001    0.63161    0.13825    1.000
    Si2340   Si       0.31241    0.61645    0.22243    1.000
    N2341    N        0.27531    0.62704    0.24197    1.000
    N2342    N        0.23918    0.60294    0.18712    1.000
    N2343    N        0.47904    0.64379    0.19800    1.000
    Si2344   Si       0.48234    0.60313    0.15961    1.000
    Si2345   Si       0.43542    0.64488    0.18618    1.000
    N2346    N        0.43863    0.60141    0.17145    1.000
    N2347    N        0.41468    0.62437    0.22276    1.000
    N2348    N        0.32698    0.62666    0.33355    1.000
    N2349    N        0.26539    0.63955    0.30643    1.000
    Si2350   Si       0.29147    0.60657    0.31411    1.000
    Si2351   Si       0.35162    0.59851    0.35407    1.000
    N2352    N        0.34794    0.60731    0.24443    1.000
    N2353    N        0.39478    0.60644    0.35410    1.000
    Si2354   Si       0.41886    0.63333    0.32934    1.000
    N2355    N        0.40519    0.63238    0.28733    1.000
    N2356    N        0.45837    0.61312    0.33197    1.000
    Si2357   Si       0.43638    0.61832    0.26030    1.000
    N2358    N        0.47113    0.64226    0.26366    1.000
    Si2359   Si       0.38047    0.63628    0.25167    1.000
    N2360    N        0.28256    0.64336    0.37186    1.000
    Si2361   Si       0.29053    0.59567    0.44830    1.000
    Si2362   Si       0.34358    0.63480    0.42099    1.000
    N2363    N        0.31125    0.63348    0.45170    1.000
    Si2364   Si       0.29079    0.60040    0.38175    1.000
    N2365    N        0.33433    0.60134    0.39389    1.000
    Si2366   Si       0.35633    0.59505    0.46896    1.000
    N2367    N        0.44596    0.63401    0.46545    1.000
    Si2368   Si       0.48113    0.63908    0.43870    1.000
    Si2369   Si       0.40895    0.65160    0.45522    1.000
    N2370    N        0.37777    0.62466    0.44380    1.000
    N2371    N        0.46479    0.64551    0.39924    1.000
    Si2372   Si       0.47234    0.61191    0.37395    1.000
    N2373    N        0.31143    0.61690    0.57356    1.000
    Si2374   Si       0.27424    0.63443    0.56048    1.000
    N2375    N        0.35352    0.61482    0.50812    1.000
    N2376    N        0.27179    0.65072    0.51707    1.000
    N2377    N        0.24331    0.65165    0.58764    1.000
    Si2378   Si       0.33635    0.65366    0.58230    1.000
    Si2379   Si       0.43657    0.60817    0.57365    1.000
    Si2380   Si       0.44689    0.60678    0.49952    1.000
    N2381    N        0.41914    0.59879    0.53244    1.000
    N2382    N        0.47311    0.59426    0.59194    1.000
    N2383    N        0.44428    0.65198    0.56646    1.000
    N2384    N        0.23940    0.63917    0.67037    1.000
    Si2385   Si       0.25233    0.63492    0.62860    1.000
    Si2386   Si       0.32806    0.62733    0.73004    1.000
    N2387    N        0.32868    0.62792    0.68587    1.000
    N2388    N        0.28317    0.59818    0.63347    1.000
    Si2389   Si       0.48615    0.64557    0.64999    1.000
    N2390    N        0.48878    0.63342    0.73739    1.000
    N2391    N        0.44444    0.63669    0.64824    1.000
    Si2392   Si       0.37361    0.64073    0.68966    1.000
    N2393    N        0.38381    0.60484    0.67009    1.000
    N2394    N        0.37052    0.63960    0.73322    1.000
    Si2395   Si       0.41880    0.60116    0.64406    1.000
    Si2396   Si       0.27365    0.60998    0.76922    1.000
    N2397    N        0.29341    0.60781    0.80800    1.000
    N2398    N        0.29579    0.64478    0.75025    1.000
    Si2399   Si       0.28013    0.59996    0.84956    1.000
    N2400    N        0.35660    0.63293    0.79515    1.000
    Si2401   Si       0.33297    0.59667    0.79414    1.000
    Si2402   Si       0.39298    0.63194    0.76989    1.000
    Si2403   Si       0.46409    0.64550    0.80352    1.000
    N2404    N        0.45344    0.65059    0.84487    1.000
    N2405    N        0.42636    0.65496    0.78065    1.000
    N2406    N        0.27402    0.63237    0.87920    1.000
    Si2407   Si       0.29162    0.62400    0.92250    1.000
    N2408    N        0.33205    0.61398    0.91573    1.000
    Si2409   Si       0.34948    0.64596    0.89076    1.000
    N2410    N        0.45151    0.61305    0.89978    1.000
    Si2411   Si       0.41159    0.60033    0.88697    1.000
    N2412    N        0.42244    0.65056    0.97123    1.000
    Si2413   Si       0.46934    0.60079    0.93603    1.000
    Si2414   Si       0.47926    0.63707    0.87668    1.000
    Si2415   Si       0.41458    0.60962    0.98380    1.000
    N2416    N        0.38718    0.63336    0.87550    1.000
    N2417    N        0.37205    0.59696    0.98195    1.000
    Si2418   Si       0.31747    0.68238    0.02068    1.000
    N2419    N        0.33495    0.70297    0.05348    1.000
    N2420    N        0.24187    0.67354    0.05972    1.000
    N2421    N        0.28301    0.70836    0.00832    1.000
    Si2422   Si       0.24784    0.70883    0.03427    1.000
    N2423    N        0.40457    0.68155    0.02656    1.000
    N2424    N        0.39004    0.69267    0.09738    1.000
    N2425    N        0.46924    0.66796    0.01819    1.000
    Si2426   Si       0.37980    0.70409    0.05436    1.000
    Si2427   Si       0.46570    0.65946    0.11166    1.000
    Si2428   Si       0.40513    0.65378    0.11006    1.000
    Si2429   Si       0.24279    0.70297    0.16301    1.000
    Si2430   Si       0.32940    0.68483    0.23443    1.000
    Si2431   Si       0.31725    0.66662    0.16368    1.000
    N2432    N        0.28745    0.69675    0.16396    1.000
    N2433    N        0.34912    0.68931    0.14819    1.000
    N2434    N        0.32461    0.65405    0.20466    1.000
    N2435    N        0.37149    0.67901    0.24631    1.000
    N2436    N        0.48071    0.70427    0.16143    1.000
    Si2437   Si       0.43518    0.70379    0.16179    1.000
    N2438    N        0.42222    0.68881    0.19927    1.000
    Si2439   Si       0.40578    0.70275    0.23568    1.000
    N2440    N        0.43260    0.66278    0.14328    1.000
    N2441    N        0.30839    0.67955    0.27002    1.000
    Si2442   Si       0.32364    0.69969    0.30490    1.000
    N2443    N        0.29130    0.69769    0.33573    1.000
    N2444    N        0.35458    0.68606    0.33027    1.000
    Si2445   Si       0.26266    0.66586    0.34230    1.000
    Si2446   Si       0.26920    0.66172    0.26831    1.000
    Si2447   Si       0.32255    0.66218    0.35540    1.000
    N2448    N        0.24033    0.69126    0.25253    1.000
    N2449    N        0.41998    0.67010    0.35197    1.000
    Si2450   Si       0.39110    0.69925    0.34436    1.000
    Si2451   Si       0.47345    0.68484    0.27409    1.000
    N2452    N        0.43623    0.70586    0.26649    1.000
    N2453    N        0.48231    0.70565    0.31084    1.000
    N2454    N        0.33978    0.66872    0.39535    1.000
    Si2455   Si       0.29654    0.66101    0.48142    1.000
    N2456    N        0.26727    0.69093    0.46920    1.000
    Si2457   Si       0.34535    0.71166    0.40096    1.000
    N2458    N        0.35893    0.71630    0.44119    1.000
    Si2459   Si       0.44164    0.67974    0.39030    1.000
    N2460    N        0.41559    0.68264    0.42487    1.000
    N2461    N        0.46916    0.71552    0.40366    1.000
    N2462    N        0.39737    0.67387    0.49073    1.000
    N2463    N        0.30022    0.67845    0.56934    1.000
    Si2464   Si       0.28108    0.69774    0.60292    1.000
    N2465    N        0.32919    0.68505    0.50092    1.000
    Si2466   Si       0.30982    0.70322    0.53669    1.000
    Si2467   Si       0.24095    0.67728    0.50412    1.000
    Si2468   Si       0.36272    0.65687    0.51216    1.000
    N2469    N        0.36928    0.66260    0.55401    1.000
    Si2470   Si       0.40673    0.67754    0.56879    1.000
    N2471    N        0.39863    0.67736    0.61255    1.000
    Si2472   Si       0.48240    0.67202    0.57373    1.000
    Si2473   Si       0.41286    0.71303    0.50565    1.000
    N2474    N        0.47644    0.71334    0.57879    1.000
    Si2475   Si       0.48390    0.71323    0.62137    1.000
    N2476    N        0.33460    0.69425    0.67357    1.000
    Si2477   Si       0.25083    0.68303    0.67206    1.000
    N2478    N        0.27730    0.67260    0.63860    1.000
    Si2479   Si       0.31276    0.65800    0.65843    1.000
    N2480    N        0.33968    0.65888    0.62394    1.000
    Si2481   Si       0.41055    0.70580    0.70903    1.000
    Si2482   Si       0.48854    0.67553    0.74131    1.000
    Si2483   Si       0.42624    0.67530    0.64591    1.000
    N2484    N        0.45011    0.69276    0.72899    1.000
    N2485    N        0.39621    0.67526    0.67871    1.000
    Si2486   Si       0.36641    0.69128    0.64161    1.000
    N2487    N        0.27220    0.67869    0.81662    1.000
    N2488    N        0.33108    0.69662    0.79264    1.000
    Si2489   Si       0.29342    0.67982    0.77716    1.000
    Si2490   Si       0.28430    0.67168    0.85816    1.000
    Si2491   Si       0.34895    0.66759    0.82047    1.000
    N2492    N        0.32741    0.66309    0.85701    1.000
    Si2493   Si       0.24452    0.70960    0.80028    1.000
    N2494    N        0.38746    0.68197    0.82790    1.000
    Si2495   Si       0.41397    0.66523    0.85721    1.000
    Si2496   Si       0.43162    0.69671    0.77043    1.000
    N2497    N        0.48349    0.68157    0.78584    1.000
    N2498    N        0.39294    0.70868    0.74983    1.000
    Si2499   Si       0.25375    0.67663    0.95486    1.000
    N2500    N        0.25433    0.69092    0.88350    1.000
    Si2501   Si       0.32938    0.68560    0.95324    1.000
    N2502    N        0.35024    0.68087    0.99072    1.000
    N2503    N        0.29389    0.66179    0.94675    1.000
    N2504    N        0.35570    0.67780    0.92032    1.000
    Si2505   Si       0.46384    0.66416    0.97573    1.000
    N2506    N        0.40514    0.71197    0.95524    1.000
    N2507    N        0.47143    0.70135    0.95633    1.000
    Si2508   Si       0.38507    0.70790    0.91748    1.000
    Si2509   Si       0.39448    0.68184    0.98489    1.000
    N2510    N        0.41616    0.69912    0.88749    1.000
    Si2511   Si       0.33828    0.74431    0.07021    1.000
    N2512    N        0.25428    0.74036    0.06291    1.000
    N2513    N        0.34568    0.74821    0.11266    1.000
    Si2514   Si       0.27568    0.77097    0.03830    1.000
    N2515    N        0.38074    0.74662    0.05569    1.000
    N2516    N        0.31781    0.72257    0.21882    1.000
    Si2517   Si       0.29586    0.73550    0.18087    1.000
    N2518    N        0.25006    0.74216    0.18023    1.000
    N2519    N        0.31618    0.77321    0.17118    1.000
    Si2520   Si       0.37335    0.71773    0.12763    1.000
    N2521    N        0.39350    0.74367    0.23346    1.000
    N2522    N        0.40762    0.73380    0.14849    1.000
    N2523    N        0.33620    0.73664    0.28835    1.000
    Si2524   Si       0.28800    0.73807    0.35597    1.000
    N2525    N        0.27577    0.75675    0.26112    1.000
    Si2526   Si       0.31705    0.74942    0.25146    1.000
    N2527    N        0.44938    0.77006    0.27217    1.000
    Si2528   Si       0.37042    0.75494    0.31050    1.000
    Si2529   Si       0.44679    0.73298    0.30238    1.000
    N2530    N        0.40526    0.72980    0.31703    1.000
    N2531    N        0.45776    0.76880    0.33236    1.000
    N2532    N        0.24999    0.74249    0.37532    1.000
    Si2533   Si       0.34400    0.72336    0.48125    1.000
    N2534    N        0.24613    0.76003    0.45702    1.000
    Si2535   Si       0.27178    0.73309    0.47913    1.000
    N2536    N        0.31095    0.74883    0.46961    1.000
    N2537    N        0.31849    0.74245    0.38768    1.000
    Si2538   Si       0.46480    0.75321    0.42511    1.000
    N2539    N        0.38492    0.72012    0.38249    1.000
    N2540    N        0.42082    0.75689    0.43326    1.000
    Si2541   Si       0.39857    0.72228    0.42341    1.000
    N2542    N        0.33461    0.73383    0.55155    1.000
    N2543    N        0.27473    0.72485    0.52265    1.000
    Si2544   Si       0.25974    0.75996    0.61152    1.000
    N2545    N        0.24287    0.71975    0.59470    1.000
    Si2546   Si       0.24207    0.73058    0.55106    1.000
    Si2547   Si       0.45107    0.73761    0.55396    1.000
    N2548    N        0.45383    0.73162    0.51071    1.000
    Si2549   Si       0.37539    0.74595    0.54507    1.000
    N2550    N        0.37824    0.73617    0.50357    1.000
    N2551    N        0.41065    0.71843    0.55382    1.000
    Si2552   Si       0.48324    0.75927    0.49778    1.000
    N2553    N        0.29642    0.73491    0.62174    1.000
    Si2554   Si       0.33246    0.75286    0.63608    1.000
    Si2555   Si       0.31569    0.72497    0.69799    1.000
    N2556    N        0.32664    0.76204    0.67964    1.000
    N2557    N        0.32931    0.73369    0.73780    1.000
    Si2558   Si       0.24380    0.71808    0.72615    1.000
    N2559    N        0.27373    0.71199    0.69569    1.000
    N2560    N        0.47148    0.76180    0.74395    1.000
    Si2561   Si       0.41555    0.74845    0.64714    1.000
    N2562    N        0.41998    0.74667    0.69298    1.000
    N2563    N        0.37344    0.73471    0.63870    1.000
    N2564    N        0.44247    0.71473    0.64004    1.000
    Si2565   Si       0.29581    0.74762    0.75989    1.000
    Si2566   Si       0.35815    0.72378    0.77048    1.000
    N2567    N        0.29545    0.76636    0.79720    1.000
    N2568    N        0.26730    0.71317    0.76315    1.000
    N2569    N        0.23754    0.74692    0.81882    1.000
    N2570    N        0.36551    0.76081    0.79632    1.000
    N2571    N        0.43423    0.73068    0.79619    1.000
    N2572    N        0.40572    0.75798    0.85511    1.000
    N2573    N        0.47611    0.72260    0.85396    1.000
    Si2574   Si       0.40925    0.76308    0.81144    1.000
    Si2575   Si       0.43781    0.73668    0.87346    1.000
    Si2576   Si       0.25072    0.73216    0.90357    1.000
    Si2577   Si       0.31872    0.75545    0.91906    1.000
    N2578    N        0.28121    0.76116    0.89776    1.000
    Si2579   Si       0.27728    0.73619    0.97557    1.000
    N2580    N        0.31242    0.72659    0.95100    1.000
    N2581    N        0.24652    0.72035    0.94585    1.000
    N2582    N        0.27603    0.77444    0.99433    1.000
    N2583    N        0.35843    0.74131    0.90633    1.000
    N2584    N        0.45551    0.75249    0.90938    1.000
    Si2585   Si       0.44373    0.73252    0.94683    1.000
    N2586    N        0.44832    0.76637    0.97221    1.000
    Si2587   Si       0.37173    0.77055    0.87653    1.000
    N2588    N        0.26032    0.80793    0.05631    1.000
    Si2589   Si       0.33835    0.81358    0.04162    1.000
    N2590    N        0.31729    0.81260    0.10964    1.000
    N2591    N        0.33395    0.82210    0.00053    1.000
    Si2592   Si       0.28583    0.82962    0.08415    1.000
    N2593    N        0.31873    0.77491    0.04964    1.000
    N2594    N        0.44023    0.77610    0.04648    1.000
    Si2595   Si       0.40305    0.78177    0.06641    1.000
    N2596    N        0.37413    0.81476    0.06846    1.000
    Si2597   Si       0.44157    0.79337    0.00675    1.000
    N2598    N        0.48290    0.81351    0.09555    1.000
    N2599    N        0.48329    0.80780    0.00244    1.000
    Si2600   Si       0.46617    0.77344    0.08151    1.000
    N2601    N        0.42613    0.78049    0.10415    1.000
    N2602    N        0.41307    0.82412    0.00476    1.000
    Si2603   Si       0.33950    0.78397    0.13418    1.000
    Si2604   Si       0.31322    0.80544    0.19709    1.000
    N2605    N        0.27233    0.81028    0.21173    1.000
    N2606    N        0.32270    0.79103    0.23997    1.000
    Si2607   Si       0.41279    0.77815    0.14419    1.000
    N2608    N        0.48954    0.80368    0.22291    1.000
    N2609    N        0.42043    0.81127    0.22677    1.000
    Si2610   Si       0.48210    0.79656    0.13694    1.000
    N2611    N        0.37678    0.80216    0.14810    1.000
    Si2612   Si       0.45424    0.81764    0.20140    1.000
    N2613    N        0.44860    0.79558    0.16464    1.000
    Si2614   Si       0.30661    0.81594    0.33402    1.000
    Si2615   Si       0.35171    0.81126    0.26369    1.000
    N2616    N        0.25288    0.81390    0.28013    1.000
    Si2617   Si       0.28055    0.79764    0.25146    1.000
    Si2618   Si       0.24899    0.77839    0.30746    1.000
    N2619    N        0.28515    0.77742    0.33043    1.000
    N2620    N        0.33609    0.82470    0.30135    1.000
    N2621    N        0.36072    0.77894    0.34472    1.000
    N2622    N        0.38327    0.78771    0.28292    1.000
    Si2623   Si       0.37645    0.81558    0.32371    1.000
    Si2624   Si       0.44951    0.79976    0.30809    1.000
    N2625    N        0.41843    0.82220    0.32722    1.000
    N2626    N        0.48218    0.82056    0.28883    1.000
    Si2627   Si       0.41213    0.77841    0.25235    1.000
    Si2628   Si       0.48811    0.78828    0.26273    1.000
    N2629    N        0.24039    0.82045    0.39855    1.000
    Si2630   Si       0.34075    0.77977    0.38259    1.000
    N2631    N        0.31013    0.81102    0.37742    1.000
    N2632    N        0.35719    0.78638    0.42193    1.000
    Si2633   Si       0.25522    0.80061    0.46338    1.000
    Si2634   Si       0.32656    0.78627    0.45425    1.000
    N2635    N        0.29142    0.80790    0.44067    1.000
    N2636    N        0.33817    0.80610    0.49055    1.000
    Si2637   Si       0.28290    0.82928    0.40407    1.000
    Si2638   Si       0.45964    0.82589    0.40662    1.000
    Si2639   Si       0.43964    0.83034    0.48186    1.000
    Si2640   Si       0.39813    0.79447    0.43077    1.000
    N2641    N        0.40197    0.81536    0.46992    1.000
    N2642    N        0.47477    0.78697    0.40029    1.000
    N2643    N        0.41668    0.81653    0.39914    1.000
    Si2644   Si       0.35218    0.80794    0.58207    1.000
    N2645    N        0.26900    0.80080    0.50573    1.000
    Si2646   Si       0.30507    0.81812    0.51639    1.000
    N2647    N        0.31625    0.81814    0.55724    1.000
    N2648    N        0.25993    0.77350    0.57059    1.000
    N2649    N        0.33791    0.79304    0.62170    1.000
    Si2650   Si       0.24040    0.79369    0.53663    1.000
    Si2651   Si       0.42103    0.79685    0.58504    1.000
    N2652    N        0.38549    0.78257    0.56721    1.000
    N2653    N        0.45700    0.77823    0.56989    1.000
    N2654    N        0.48065    0.82807    0.61834    1.000
    N2655    N        0.46304    0.79922    0.49706    1.000
    N2656    N        0.35092    0.80700    0.73903    1.000
    Si2657   Si       0.31737    0.79375    0.71073    1.000
    N2658    N        0.27118    0.79783    0.63504    1.000
    Si2659   Si       0.30931    0.81897    0.64259    1.000
    N2660    N        0.28239    0.77710    0.73121    1.000
    N2661    N        0.31678    0.82788    0.68528    1.000
    Si2662   Si       0.24053    0.78913    0.73297    1.000
    Si2663   Si       0.39162    0.82398    0.73432    1.000
    Si2664   Si       0.45162    0.77317    0.70818    1.000
    N2665    N        0.42638    0.78684    0.62898    1.000
    N2666    N        0.43106    0.80723    0.73035    1.000
    Si2667   Si       0.45410    0.81275    0.65048    1.000
    N2668    N        0.47928    0.78551    0.67417    1.000
    N2669    N        0.26141    0.80644    0.84329    1.000
    Si2670   Si       0.25686    0.78473    0.80733    1.000
    Si2671   Si       0.33014    0.77976    0.81580    1.000
    N2672    N        0.33129    0.82390    0.80912    1.000
    N2673    N        0.33247    0.77657    0.85870    1.000
    N2674    N        0.42780    0.79860    0.79829    1.000
    Si2675   Si       0.45816    0.79810    0.76509    1.000
    Si2676   Si       0.29161    0.79998    0.87880    1.000
    N2677    N        0.32171    0.79487    0.93667    1.000
    Si2678   Si       0.30029    0.80468    0.97537    1.000
    Si2679   Si       0.34778    0.82266    0.91800    1.000
    N2680    N        0.26476    0.83137    0.89931    1.000
    N2681    N        0.38284    0.80311    0.90067    1.000
    Si2682   Si       0.47760    0.79100    0.90029    1.000
    N2683    N        0.44817    0.81480    0.88065    1.000
    Si2684   Si       0.40904    0.82891    0.87915    1.000
    N2685    N        0.31919    0.85058    0.06220    1.000
    N2686    N        0.25964    0.86000    0.09963    1.000
    Si2687   Si       0.35006    0.83803    0.09402    1.000
    N2688    N        0.33395    0.89305    0.00454    1.000
    Si2689   Si       0.23823    0.87802    0.06448    1.000
    Si2690   Si       0.31551    0.89284    0.04497    1.000
    N2691    N        0.45839    0.87231    0.02269    1.000
    Si2692   Si       0.42389    0.86440    0.99934    1.000
    Si2693   Si       0.23876    0.87761    0.13709    1.000
    Si2694   Si       0.24308    0.83606    0.19490    1.000
    Si2695   Si       0.30663    0.87772    0.17300    1.000
    N2696    N        0.26511    0.86284    0.16779    1.000
    N2697    N        0.32997    0.84129    0.18161    1.000
    Si2698   Si       0.35774    0.88643    0.22222    1.000
    N2699    N        0.36191    0.86695    0.12284    1.000
    N2700    N        0.38526    0.87625    0.18900    1.000
    Si2701   Si       0.36878    0.84423    0.16058    1.000
    N2702    N        0.45427    0.85962    0.18495    1.000
    Si2703   Si       0.42690    0.88906    0.19448    1.000
    N2704    N        0.29137    0.85794    0.33233    1.000
    Si2705   Si       0.33686    0.86939    0.28584    1.000
    N2706    N        0.35515    0.85383    0.25004    1.000
    Si2707   Si       0.27121    0.88630    0.30704    1.000
    Si2708   Si       0.29607    0.88958    0.36388    1.000
    N2709    N        0.37090    0.84297    0.35614    1.000
    Si2710   Si       0.41476    0.84307    0.36586    1.000
    Si2711   Si       0.45841    0.88416    0.34071    1.000
    Si2712   Si       0.36991    0.88724    0.35224    1.000
    N2713    N        0.41042    0.88803    0.36441    1.000
    N2714    N        0.28209    0.87271    0.40192    1.000
    N2715    N        0.35386    0.86278    0.45238    1.000
    Si2716   Si       0.25973    0.87109    0.48593    1.000
    N2717    N        0.23878    0.83921    0.46296    1.000
    Si2718   Si       0.36831    0.83436    0.48447    1.000
    N2719    N        0.46196    0.85015    0.37029    1.000
    N2720    N        0.45911    0.84344    0.44582    1.000
    N2721    N        0.26399    0.86095    0.57875    1.000
    Si2722   Si       0.30694    0.85699    0.57649    1.000
    N2723    N        0.29976    0.86186    0.50405    1.000
    Si2724   Si       0.33299    0.88481    0.51887    1.000
    Si2725   Si       0.34742    0.87434    0.61991    1.000
    N2726    N        0.36252    0.85007    0.58614    1.000
    N2727    N        0.36976    0.85966    0.51959    1.000
    Si2728   Si       0.39103    0.86532    0.55766    1.000
    Si2729   Si       0.46128    0.85827    0.55285    1.000
    N2730    N        0.44819    0.86308    0.51105    1.000
    N2731    N        0.42522    0.84084    0.57157    1.000
    N2732    N        0.30701    0.85672    0.61985    1.000
    Si2733   Si       0.26004    0.87112    0.62798    1.000
    Si2734   Si       0.34530    0.85909    0.69031    1.000
    N2735    N        0.26979    0.87655    0.66968    1.000
    N2736    N        0.26150    0.85275    0.73497    1.000
    Si2737   Si       0.24527    0.85071    0.69491    1.000
    N2738    N        0.38365    0.86130    0.71115    1.000
    N2739    N        0.36999    0.85746    0.65133    1.000
    Si2740   Si       0.47767    0.87968    0.67846    1.000
    N2741    N        0.44410    0.85341    0.66857    1.000
    Si2742   Si       0.40660    0.87250    0.67471    1.000
    N2743    N        0.26283    0.87738    0.85732    1.000
    Si2744   Si       0.34203    0.83663    0.77042    1.000
    N2745    N        0.33087    0.87486    0.75264    1.000
    Si2746   Si       0.34478    0.84679    0.84373    1.000
    Si2747   Si       0.24072    0.85625    0.77349    1.000
    N2748    N        0.33192    0.88831    0.85038    1.000
    Si2749   Si       0.23989    0.84112    0.86461    1.000
    Si2750   Si       0.48717    0.85365    0.80793    1.000
    N2751    N        0.44425    0.86514    0.81100    1.000
    N2752    N        0.38623    0.84940    0.77184    1.000
    Si2753   Si       0.41135    0.83898    0.80587    1.000
    N2754    N        0.38613    0.83620    0.84256    1.000
    Si2755   Si       0.37441    0.88583    0.74743    1.000
    N2756    N        0.28784    0.84498    0.96681    1.000
    Si2757   Si       0.33066    0.85908    0.97758    1.000
    Si2758   Si       0.26553    0.85763    0.93312    1.000
    Si2759   Si       0.29992    0.87304    0.87903    1.000
    N2760    N        0.32503    0.83714    0.88308    1.000
    N2761    N        0.35822    0.85436    0.94472    1.000
    N2762    N        0.40533    0.86851    0.89710    1.000
    Si2763   Si       0.39320    0.87861    0.93677    1.000
    N2764    N        0.43101    0.87175    0.95881    1.000
    Si2765   Si       0.25898    0.93124    0.01506    1.000
    N2766    N        0.34224    0.91917    0.07196    1.000
    Si2767   Si       0.34888    0.90609    0.11391    1.000
    N2768    N        0.27117    0.89796    0.04177    1.000
    Si2769   Si       0.24087    0.94371    0.08941    1.000
    Si2770   Si       0.43687    0.90538    0.04471    1.000
    Si2771   Si       0.41273    0.93090    0.10084    1.000
    N2772    N        0.40496    0.90345    0.01431    1.000
    N2773    N        0.46229    0.94208    0.04139    1.000
    N2774    N        0.42252    0.89327    0.08377    1.000
    N2775    N        0.24680    0.91979    0.12811    1.000
    N2776    N        0.25416    0.92196    0.22380    1.000
    Si2777   Si       0.28409    0.93844    0.13547    1.000
    N2778    N        0.31438    0.90570    0.14041    1.000
    N2779    N        0.31826    0.90017    0.20888    1.000
    Si2780   Si       0.29371    0.91645    0.24015    1.000
    N2781    N        0.42161    0.92989    0.18086    1.000
    Si2782   Si       0.45159    0.94297    0.22891    1.000
    N2783    N        0.44345    0.90012    0.23425    1.000
    N2784    N        0.37891    0.93573    0.12751    1.000
    N2785    N        0.37645    0.91892    0.24732    1.000
    N2786    N        0.27475    0.91802    0.33654    1.000
    Si2787   Si       0.24396    0.93839    0.35848    1.000
    N2788    N        0.29958    0.88935    0.27362    1.000
    N2789    N        0.33680    0.90386    0.37241    1.000
    N2790    N        0.48300    0.94012    0.26173    1.000
    Si2791   Si       0.39644    0.90987    0.28754    1.000
    N2792    N        0.46404    0.92221    0.36189    1.000
    Si2793   Si       0.46754    0.89948    0.27072    1.000
    N2794    N        0.43601    0.89484    0.30103    1.000
    N2795    N        0.36325    0.89198    0.30999    1.000
    N2796    N        0.25699    0.93970    0.39966    1.000
    Si2797   Si       0.34660    0.94117    0.39283    1.000
    Si2798   Si       0.25647    0.90157    0.42043    1.000
    N2799    N        0.26896    0.90532    0.46198    1.000
    Si2800   Si       0.26612    0.94616    0.47819    1.000
    Si2801   Si       0.44717    0.89999    0.48845    1.000
    Si2802   Si       0.40657    0.94009    0.44311    1.000
    N2803    N        0.48712    0.90160    0.46885    1.000
    Si2804   Si       0.36578    0.90134    0.46398    1.000
    N2805    N        0.36441    0.93006    0.43024    1.000
    Si2806   Si       0.42112    0.92983    0.37263    1.000
    N2807    N        0.41348    0.90072    0.46100    1.000
    Si2808   Si       0.33135    0.93384    0.58209    1.000
    N2809    N        0.32098    0.89568    0.56062    1.000
    N2810    N        0.34605    0.91917    0.49543    1.000
    N2811    N        0.34936    0.91754    0.62055    1.000
    Si2812   Si       0.43584    0.93139    0.55645    1.000
    N2813    N        0.44655    0.93479    0.51481    1.000
    N2814    N        0.40281    0.90680    0.55790    1.000
    N2815    N        0.46677    0.89998    0.56948    1.000
    Si2816   Si       0.26913    0.94759    0.62393    1.000
    N2817    N        0.24576    0.91133    0.61991    1.000
    N2818    N        0.33092    0.90041    0.68481    1.000
    N2819    N        0.27492    0.92118    0.72371    1.000
    Si2820   Si       0.28955    0.91133    0.68474    1.000
    Si2821   Si       0.35760    0.92722    0.66181    1.000
    Si2822   Si       0.47954    0.91260    0.73096    1.000
    Si2823   Si       0.43035    0.94188    0.67529    1.000
    N2824    N        0.45766    0.91500    0.69283    1.000
    N2825    N        0.39945    0.91550    0.66593    1.000
    Si2826   Si       0.34855    0.92765    0.85334    1.000
    Si2827   Si       0.25767    0.90799    0.82706    1.000
    Si2828   Si       0.29525    0.90266    0.75701    1.000
    N2829    N        0.31507    0.93880    0.77323    1.000
    N2830    N        0.26787    0.89095    0.78816    1.000
    N2831    N        0.27829    0.94676    0.83538    1.000
    Si2832   Si       0.45871    0.90829    0.80707    1.000
    N2833    N        0.46448    0.91007    0.85628    1.000
    N2834    N        0.38527    0.92519    0.75771    1.000
    N2835    N        0.45060    0.91019    0.76040    1.000
    N2836    N        0.39123    0.92595    0.86489    1.000
    N2837    N        0.42796    0.93963    0.80889    1.000
    Si2838   Si       0.28707    0.93269    0.93641    1.000
    N2839    N        0.26285    0.92602    0.97171    1.000
    N2840    N        0.32905    0.94753    0.88633    1.000
    Si2841   Si       0.35462    0.94411    0.92236    1.000
    N2842    N        0.28802    0.89252    0.91761    1.000
    N2843    N        0.37553    0.91551    0.95015    1.000
    Si2844   Si       0.46099    0.89611    0.93977    1.000
    N2845    N        0.48352    0.92630    0.96289    1.000
    N2846    N        0.44073    0.92375    0.91504    1.000
    Si2847   Si       0.42479    0.90310    0.87776    1.000
    Si2848   Si       0.36935    0.91681    0.99244    1.000
    Si2849   Si       0.29699    0.97992    0.06088    1.000
    N2850    N        0.33869    0.99142    0.06655    1.000
    N2851    N        0.29437    0.95896    0.02093    1.000
    N2852    N        0.28432    0.95746    0.09570    1.000
    N2853    N        0.35996    0.95524    0.01112    1.000
    Si2854   Si       0.36177    0.95407    0.05399    1.000
    Si2855   Si       0.43703    0.97531    0.04917    1.000
    N2856    N        0.46297    0.00046    0.07553    1.000
    Si2857   Si       0.47967    0.97427    0.10607    1.000
    N2858    N        0.40223    0.95461    0.06650    1.000
    N2859    N        0.44495    0.00593    0.01677    1.000
    N2860    N        0.44731    0.94906    0.11933    1.000
    Si2861   Si       0.24709    0.96007    0.20193    1.000
    Si2862   Si       0.31950    0.97713    0.18128    1.000
    N2863    N        0.27993    0.95792    0.17470    1.000
    N2864    N        0.24456    0.99106    0.23354    1.000
    N2865    N        0.35814    0.96184    0.19603    1.000
    N2866    N        0.32905    0.99652    0.14423    1.000
    Si2867   Si       0.28400    0.99453    0.24604    1.000
    Si2868   Si       0.44922    0.96234    0.16183    1.000
    N2869    N        0.47667    0.95437    0.19526    1.000
    N2870    N        0.48402    0.99675    0.14285    1.000
    N2871    N        0.41537    0.99137    0.16768    1.000
    Si2872   Si       0.38988    0.95450    0.16489    1.000
    N2873    N        0.42120    0.97313    0.23779    1.000
    Si2874   Si       0.37922    0.96026    0.23394    1.000
    N2875    N        0.33764    0.98024    0.32619    1.000
    Si2876   Si       0.32794    0.97961    0.28428    1.000
    Si2877   Si       0.32239    0.00149    0.36018    1.000
    N2878    N        0.30214    0.95588    0.25937    1.000
    N2879    N        0.36297    0.99515    0.25673    1.000
    Si2880   Si       0.38070    0.97541    0.33216    1.000
    Si2881   Si       0.40978    0.99827    0.27394    1.000
    Si2882   Si       0.47955    0.96211    0.36169    1.000
    N2883    N        0.44298    0.98478    0.36143    1.000
    N2884    N        0.45060    0.99778    0.29232    1.000
    N2885    N        0.39676    0.95468    0.29831    1.000
    N2886    N        0.38393    0.95091    0.36903    1.000
    N2887    N        0.28724    0.97775    0.45362    1.000
    N2888    N        0.31681    0.97147    0.39086    1.000
    Si2889   Si       0.27985    0.97462    0.41231    1.000
    N2890    N        0.34588    0.99155    0.48827    1.000
    N2891    N        0.25732    0.00994    0.40439    1.000
    N2892    N        0.38795    0.00456    0.42090    1.000
    Si2893   Si       0.44846    0.97020    0.49059    1.000
    N2894    N        0.43273    0.94889    0.41199    1.000
    N2895    N        0.48391    0.97012    0.46542    1.000
    Si2896   Si       0.38092    0.00277    0.46396    1.000
    Si2897   Si       0.42644    0.99172    0.40326    1.000
    N2898    N        0.40960    0.97124    0.47070    1.000
    Si2899   Si       0.27089    0.96360    0.55344    1.000
    N2900    N        0.34957    0.96090    0.55279    1.000
    Si2901   Si       0.33470    0.95830    0.51166    1.000
    N2902    N        0.29229    0.95393    0.58887    1.000
    N2903    N        0.25795    0.00530    0.54881    1.000
    Si2904   Si       0.36354    0.99661    0.57104    1.000
    N2905    N        0.28986    0.95582    0.51472    1.000
    Si2906   Si       0.46483    0.99254    0.55474    1.000
    N2907    N        0.43453    0.97113    0.57670    1.000
    N2908    N        0.37866    0.99547    0.61401    1.000
    Si2909   Si       0.42205    0.98799    0.61632    1.000
    N2910    N        0.44684    0.00424    0.51731    1.000
    N2911    N        0.35340    0.96457    0.68214    1.000
    Si2912   Si       0.31393    0.98146    0.67738    1.000
    Si2913   Si       0.24685    0.95177    0.73261    1.000
    N2914    N        0.30570    0.00176    0.71401    1.000
    N2915    N        0.28877    0.95007    0.66290    1.000
    N2916    N        0.41795    0.97354    0.70318    1.000
    Si2917   Si       0.37805    0.99043    0.70643    1.000
    N2918    N        0.48445    0.99979    0.69315    1.000
    Si2919   Si       0.44922    0.99944    0.72038    1.000
    N2920    N        0.44672    0.96711    0.64446    1.000
    N2921    N        0.25346    0.97106    0.77151    1.000
    Si2922   Si       0.28925    0.96461    0.79716    1.000
    Si2923   Si       0.35716    0.95199    0.77770    1.000
    N2924    N        0.31072    0.00362    0.79359    1.000
    N2925    N        0.36429    0.98674    0.75048    1.000
    N2926    N        0.36075    0.95659    0.82021    1.000
    Si2927   Si       0.40316    0.95986    0.83848    1.000
    N2928    N        0.44515    0.98258    0.76085    1.000
    Si2929   Si       0.45192    0.99550    0.80228    1.000
    Si2930   Si       0.47403    0.95302    0.85628    1.000
    N2931    N        0.48363    0.96502    0.81520    1.000
    N2932    N        0.41201    0.00461    0.82485    1.000
    Si2933   Si       0.42403    0.94380    0.76407    1.000
    Si2934   Si       0.29145    0.96399    0.87344    1.000
    N2935    N        0.26604    0.95643    0.90736    1.000
    Si2936   Si       0.32346    0.97262    0.99072    1.000
    N2937    N        0.32279    0.95161    0.95277    1.000
    N2938    N        0.38465    0.97501    0.91919    1.000
    N2939    N        0.43676    0.97340    0.87087    1.000
    Si2940   Si       0.42625    0.96481    0.91224    1.000
    N2941    N        0.45392    0.98297    0.93993    1.000
    N2942    N        0.55503    0.04596    0.05746    1.000
    N2943    N        0.49722    0.05710    0.09886    1.000
    Si2944   Si       0.55122    0.01512    0.02614    1.000
    N2945    N        0.48999    0.05135    0.03298    1.000
    N2946    N        0.59062    0.06467    0.11932    1.000
    Si2947   Si       0.73316    0.03960    0.11488    1.000
    N2948    N        0.62468    0.04368    0.06686    1.000
    Si2949   Si       0.68092    0.03347    0.00550    1.000
    N2950    N        0.72129    0.02050    0.01481    1.000
    Si2951   Si       0.66595    0.02716    0.07963    1.000
    N2952    N        0.67989    0.05381    0.04570    1.000
    N2953    N        0.71134    0.01603    0.08336    1.000
    Si2954   Si       0.72296    0.06207    0.05163    1.000
    N2955    N        0.65081    0.01745    0.12104    1.000
    Si2956   Si       0.60789    0.06370    0.19525    1.000
    Si2957   Si       0.51341    0.02749    0.23874    1.000
    N2958    N        0.52051    0.05999    0.16432    1.000
    N2959    N        0.54256    0.06128    0.23364    1.000
    Si2960   Si       0.49605    0.02560    0.17043    1.000
    N2961    N        0.60676    0.02466    0.17445    1.000
    Si2962   Si       0.60835    0.02691    0.12982    1.000
    Si2963   Si       0.69283    0.01758    0.24432    1.000
    Si2964   Si       0.72094    0.05997    0.18066    1.000
    N2965    N        0.71102    0.02816    0.15198    1.000
    N2966    N        0.69528    0.05347    0.21762    1.000
    N2967    N        0.53837    0.05206    0.30715    1.000
    N2968    N        0.58748    0.02899    0.27670    1.000
    Si2969   Si       0.55259    0.01209    0.29747    1.000
    Si2970   Si       0.57486    0.00624    0.36797    1.000
    N2971    N        0.61410    0.02233    0.35941    1.000
    Si2972   Si       0.63005    0.04129    0.27381    1.000
    N2973    N        0.70701    0.02787    0.28426    1.000
    Si2974   Si       0.68588    0.03693    0.32014    1.000
    N2975    N        0.64713    0.05540    0.31103    1.000
    N2976    N        0.72111    0.06151    0.33267    1.000
    Si2977   Si       0.62129    0.06341    0.34616    1.000
    N2978    N        0.65185    0.00633    0.25778    1.000
    N2979    N        0.68250    0.00772    0.35361    1.000
    N2980    N        0.55081    0.04037    0.37935    1.000
    Si2981   Si       0.54765    0.02709    0.47623    1.000
    N2982    N        0.52713    0.02062    0.43855    1.000
    Si2983   Si       0.54271    0.05893    0.41908    1.000
    N2984    N        0.58824    0.01034    0.46687    1.000
    Si2985   Si       0.60826    0.05046    0.47333    1.000
    N2986    N        0.56319    0.06638    0.46317    1.000
    Si2987   Si       0.66489    0.01681    0.44097    1.000
    Si2988   Si       0.73180    0.04696    0.41689    1.000
    N2989    N        0.64299    0.05404    0.44651    1.000
    N2990    N        0.70658    0.01400    0.43143    1.000
    N2991    N        0.53271    0.01962    0.51612    1.000
    Si2992   Si       0.50922    0.05056    0.53439    1.000
    N2993    N        0.59071    0.05867    0.62463    1.000
    Si2994   Si       0.62212    0.05560    0.59429    1.000
    N2995    N        0.69786    0.03579    0.59836    1.000
    N2996    N        0.63458    0.03624    0.50856    1.000
    N2997    N        0.63093    0.01389    0.58720    1.000
    Si2998   Si       0.73512    0.05114    0.58418    1.000
    Si2999   Si       0.52315    0.01967    0.70342    1.000
    Si3000   Si       0.57317    0.02743    0.64975    1.000
    N3001    N        0.53537    0.03824    0.66785    1.000
    N3002    N        0.60258    0.02734    0.68294    1.000
    N3003    N        0.50538    0.04739    0.73498    1.000
    N3004    N        0.71431    0.04353    0.73817    1.000
    N3005    N        0.72593    0.06815    0.66838    1.000
    N3006    N        0.67328    0.01401    0.68418    1.000
    N3007    N        0.64524    0.05771    0.72947    1.000
    Si3008   Si       0.71116    0.03562    0.69491    1.000
    Si3009   Si       0.64085    0.04442    0.68689    1.000
    Si3010   Si       0.56280    0.02740    0.78743    1.000
    Si3011   Si       0.50751    0.04002    0.77740    1.000
    N3012    N        0.53804    0.05989    0.80389    1.000
    N3013    N        0.58438    0.03788    0.74912    1.000
    Si3014   Si       0.67560    0.04935    0.75881    1.000
    N3015    N        0.67747    0.05102    0.84357    1.000
    Si3016   Si       0.69128    0.01727    0.82166    1.000
    N3017    N        0.73335    0.02610    0.80849    1.000
    N3018    N        0.66871    0.01120    0.78376    1.000
    Si3019   Si       0.50480    0.00758    0.88422    1.000
    N3020    N        0.54378    0.03537    0.98886    1.000
    N3021    N        0.51874    0.03622    0.91411    1.000
    Si3022   Si       0.51892    0.02201    0.95574    1.000
    N3023    N        0.60889    0.03433    0.95811    1.000
    N3024    N        0.67745    0.05922    0.97227    1.000
    N3025    N        0.66283    0.01635    0.91460    1.000
    N3026    N        0.61414    0.01175    0.87635    1.000
    Si3027   Si       0.62166    0.03080    0.91517    1.000
    N3028    N        0.72482    0.01457    0.94124    1.000
    Si3029   Si       0.69039    0.04120    0.93373    1.000
    N3030    N        0.52168    0.10761    0.05844    1.000
    N3031    N        0.60356    0.09974    0.05642    1.000
    Si3032   Si       0.51693    0.06684    0.06262    1.000
    Si3033   Si       0.58771    0.06591    0.07589    1.000
    N3034    N        0.72532    0.07587    0.09247    1.000
    Si3035   Si       0.64209    0.07957    0.04588    1.000
    N3036    N        0.66066    0.10943    0.02011    1.000
    N3037    N        0.67172    0.12003    0.11487    1.000
    Si3038   Si       0.71257    0.10940    0.11685    1.000
    N3039    N        0.53943    0.11226    0.12200    1.000
    Si3040   Si       0.50514    0.08364    0.13182    1.000
    Si3041   Si       0.57740    0.10092    0.14059    1.000
    N3042    N        0.57567    0.08781    0.18120    1.000
    Si3043   Si       0.53317    0.08490    0.19713    1.000
    N3044    N        0.49246    0.10488    0.20199    1.000
    Si3045   Si       0.65176    0.11103    0.15182    1.000
    Si3046   Si       0.66223    0.08301    0.22166    1.000
    N3047    N        0.71794    0.09992    0.15918    1.000
    N3048    N        0.67388    0.12250    0.23614    1.000
    N3049    N        0.64683    0.08254    0.18040    1.000
    N3050    N        0.62437    0.06530    0.23716    1.000
    N3051    N        0.61161    0.12637    0.13749    1.000
    N3052    N        0.58433    0.09190    0.34352    1.000
    N3053    N        0.56944    0.10654    0.27880    1.000
    N3054    N        0.51041    0.09235    0.35573    1.000
    Si3055   Si       0.54617    0.07034    0.34687    1.000
    Si3056   Si       0.55992    0.06593    0.27093    1.000
    Si3057   Si       0.71751    0.10497    0.33468    1.000
    N3058    N        0.69857    0.11850    0.29809    1.000
    Si3059   Si       0.53897    0.09884    0.48446    1.000
    Si3060   Si       0.59610    0.11164    0.38516    1.000
    N3061    N        0.50261    0.07943    0.41980    1.000
    N3062    N        0.55993    0.09949    0.40366    1.000
    Si3063   Si       0.51908    0.11062    0.39470    1.000
    Si3064   Si       0.66776    0.10305    0.39363    1.000
    N3065    N        0.69575    0.08809    0.47629    1.000
    N3066    N        0.62634    0.09717    0.49105    1.000
    N3067    N        0.65607    0.12221    0.43195    1.000
    N3068    N        0.63185    0.08558    0.38243    1.000
    N3069    N        0.70246    0.08047    0.40979    1.000
    Si3070   Si       0.72179    0.10028    0.44459    1.000
    Si3071   Si       0.65589    0.09171    0.46101    1.000
    Si3072   Si       0.56888    0.09883    0.55467    1.000
    Si3073   Si       0.50218    0.10478    0.58927    1.000
    N3074    N        0.52802    0.08256    0.55890    1.000
    N3075    N        0.56891    0.11348    0.51351    1.000
    N3076    N        0.60412    0.07309    0.55640    1.000
    N3077    N        0.50569    0.07451    0.49734    1.000
    N3078    N        0.56698    0.12187    0.58927    1.000
    N3079    N        0.49779    0.07215    0.61718    1.000
    Si3080   Si       0.69875    0.11219    0.51282    1.000
    N3081    N        0.67513    0.09155    0.54204    1.000
    Si3082   Si       0.68857    0.10362    0.58248    1.000
    N3083    N        0.65149    0.08601    0.60329    1.000
    Si3084   Si       0.63741    0.07471    0.52921    1.000
    N3085    N        0.73115    0.09489    0.57620    1.000
    Si3086   Si       0.58034    0.10154    0.62628    1.000
    Si3087   Si       0.51598    0.07734    0.65589    1.000
    N3088    N        0.54892    0.10519    0.65292    1.000
    N3089    N        0.60592    0.10687    0.72007    1.000
    Si3090   Si       0.64715    0.10647    0.70413    1.000
    Si3091   Si       0.65493    0.11181    0.64227    1.000
    N3092    N        0.69683    0.11844    0.62572    1.000
    N3093    N        0.64999    0.08064    0.66903    1.000
    Si3094   Si       0.72992    0.10638    0.65082    1.000
    N3095    N        0.68158    0.12036    0.72886    1.000
    Si3096   Si       0.53211    0.09294    0.83321    1.000
    N3097    N        0.48791    0.09396    0.83665    1.000
    Si3098   Si       0.60821    0.07294    0.74726    1.000
    N3099    N        0.61877    0.09309    0.78312    1.000
    N3100    N        0.74017    0.12542    0.78487    1.000
    N3101    N        0.61775    0.09573    0.84251    1.000
    N3102    N        0.68102    0.08132    0.78466    1.000
    N3103    N        0.67718    0.11198    0.85153    1.000
    Si3104   Si       0.65463    0.08258    0.82164    1.000
    Si3105   Si       0.69688    0.11829    0.76959    1.000
    Si3106   Si       0.70254    0.07977    0.86578    1.000
    N3107    N        0.55081    0.08694    0.87099    1.000
    Si3108   Si       0.59259    0.09580    0.87748    1.000
    Si3109   Si       0.59501    0.07562    0.94964    1.000
    N3110    N        0.55544    0.08858    0.94212    1.000
    Si3111   Si       0.53107    0.07757    0.90653    1.000
    Si3112   Si       0.52445    0.11555    0.95731    1.000
    N3113    N        0.50132    0.10724    0.92082    1.000
    N3114    N        0.49835    0.10434    0.99250    1.000
    N3115    N        0.61032    0.07168    0.90860    1.000
    Si3116   Si       0.65901    0.09960    0.97816    1.000
    N3117    N        0.70264    0.07370    0.90894    1.000
    Si3118   Si       0.71720    0.10720    0.93038    1.000
    N3119    N        0.61829    0.10767    0.96871    1.000
    N3120    N        0.57309    0.15562    0.08228    1.000
    N3121    N        0.51471    0.16551    0.02423    1.000
    Si3122   Si       0.60379    0.14249    0.05322    1.000
    N3123    N        0.50828    0.16803    0.09124    1.000
    N3124    N        0.60073    0.16164    0.01421    1.000
    Si3125   Si       0.53596    0.13531    0.08633    1.000
    Si3126   Si       0.49529    0.12773    0.02898    1.000
    Si3127   Si       0.58006    0.18219    0.11695    1.000
    N3128    N        0.64292    0.15987    0.06771    1.000
    Si3129   Si       0.67146    0.14770    0.03884    1.000
    Si3130   Si       0.71668    0.17045    0.09050    1.000
    N3131    N        0.71152    0.14367    0.05570    1.000
    Si3132   Si       0.65064    0.15853    0.11105    1.000
    N3133    N        0.67921    0.17785    0.00878    1.000
    N3134    N        0.68608    0.18325    0.11683    1.000
    N3135    N        0.54130    0.17150    0.22108    1.000
    N3136    N        0.56793    0.17142    0.15713    1.000
    N3137    N        0.49805    0.16627    0.16494    1.000
    N3138    N        0.60959    0.16262    0.21127    1.000
    Si3139   Si       0.61024    0.16100    0.16783    1.000
    Si3140   Si       0.53434    0.18346    0.18069    1.000
    Si3141   Si       0.50939    0.18210    0.24719    1.000
    N3142    N        0.65532    0.15168    0.17374    1.000
    Si3143   Si       0.65233    0.15678    0.21741    1.000
    Si3144   Si       0.74003    0.13071    0.18236    1.000
    N3145    N        0.71970    0.17189    0.17913    1.000
    N3146    N        0.56958    0.15867    0.33662    1.000
    N3147    N        0.51605    0.17325    0.28762    1.000
    N3148    N        0.58709    0.18047    0.27680    1.000
    Si3149   Si       0.58881    0.18337    0.36990    1.000
    Si3150   Si       0.58487    0.12463    0.31252    1.000
    Si3151   Si       0.55438    0.18275    0.30449    1.000
    Si3152   Si       0.71444    0.12755    0.25691    1.000
    N3153    N        0.68171    0.12201    0.35664    1.000
    N3154    N        0.62524    0.13729    0.31212    1.000
    Si3155   Si       0.66889    0.14027    0.31970    1.000
    N3156    N        0.72309    0.17083    0.26383    1.000
    N3157    N        0.66579    0.18130    0.30196    1.000
    N3158    N        0.60270    0.16126    0.46704    1.000
    N3159    N        0.52068    0.13820    0.47348    1.000
    N3160    N        0.60810    0.15242    0.39599    1.000
    Si3161   Si       0.51862    0.16901    0.44156    1.000
    N3162    N        0.50744    0.15053    0.40457    1.000
    Si3163   Si       0.69350    0.16478    0.46642    1.000
    N3164    N        0.72723    0.14245    0.44943    1.000
    Si3165   Si       0.63148    0.16032    0.43196    1.000
    Si3166   Si       0.54819    0.16034    0.59852    1.000
    N3167    N        0.50754    0.14738    0.60133    1.000
    N3168    N        0.49578    0.17806    0.53174    1.000
    Si3169   Si       0.60507    0.13298    0.50044    1.000
    N3170    N        0.61594    0.15802    0.53595    1.000
    Si3171   Si       0.65898    0.16355    0.53953    1.000
    N3172    N        0.68280    0.15069    0.57551    1.000
    Si3173   Si       0.70151    0.16104    0.61592    1.000
    N3174    N        0.67343    0.14749    0.50232    1.000
    N3175    N        0.73764    0.13067    0.51725    1.000
    N3176    N        0.59062    0.16681    0.69702    1.000
    Si3177   Si       0.57854    0.13932    0.72916    1.000
    Si3178   Si       0.60028    0.16657    0.65353    1.000
    N3179    N        0.56257    0.17785    0.63247    1.000
    N3180    N        0.53837    0.12981    0.74413    1.000
    N3181    N        0.61364    0.12739    0.63713    1.000
    N3182    N        0.73053    0.13577    0.68304    1.000
    N3183    N        0.65920    0.14126    0.67687    1.000
    Si3184   Si       0.69369    0.15140    0.70216    1.000
    N3185    N        0.58893    0.15566    0.77073    1.000
    Si3186   Si       0.54363    0.14923    0.78502    1.000
    N3187    N        0.50091    0.14190    0.79186    1.000
    Si3188   Si       0.49292    0.13119    0.75129    1.000
    N3189    N        0.55973    0.12408    0.81612    1.000
    Si3190   Si       0.60258    0.12617    0.80597    1.000
    Si3191   Si       0.73034    0.16434    0.79932    1.000
    Si3192   Si       0.64122    0.13565    0.86107    1.000
    N3193    N        0.72162    0.16513    0.84137    1.000
    N3194    N        0.69007    0.15938    0.78496    1.000
    N3195    N        0.63185    0.15511    0.82263    1.000
    Si3196   Si       0.59619    0.14497    0.97566    1.000
    N3197    N        0.55170    0.14863    0.96983    1.000
    N3198    N        0.60721    0.13460    0.88935    1.000
    N3199    N        0.65600    0.17194    0.88356    1.000
    Si3200   Si       0.61895    0.17286    0.90664    1.000
    N3201    N        0.68892    0.12569    0.95875    1.000
    Si3202   Si       0.70326    0.16167    0.97849    1.000
    N3203    N        0.61513    0.17501    0.94899    1.000
    N3204    N        0.72385    0.13944    0.90225    1.000
    Si3205   Si       0.73268    0.17817    0.91682    1.000
    N3206    N        0.60025    0.22300    0.05165    1.000
    N3207    N        0.52639    0.22704    0.04502    1.000
    N3208    N        0.55918    0.22059    0.11093    1.000
    Si3209   Si       0.50128    0.19452    0.05573    1.000
    Si3210   Si       0.60209    0.20625    0.01192    1.000
    Si3211   Si       0.56199    0.23240    0.06953    1.000
    N3212    N        0.73631    0.20720    0.07683    1.000
    Si3213   Si       0.67432    0.22096    0.01124    1.000
    N3214    N        0.67154    0.23208    0.05261    1.000
    Si3215   Si       0.70505    0.24057    0.07772    1.000
    N3216    N        0.57536    0.22621    0.23438    1.000
    N3217    N        0.53657    0.22768    0.17809    1.000
    Si3218   Si       0.57974    0.18202    0.23503    1.000
    Si3219   Si       0.53790    0.24265    0.21703    1.000
    N3220    N        0.50652    0.22611    0.24346    1.000
    Si3221   Si       0.68384    0.18258    0.15952    1.000
    Si3222   Si       0.67628    0.22854    0.20946    1.000
    Si3223   Si       0.63490    0.23016    0.13974    1.000
    N3224    N        0.66592    0.22157    0.16868    1.000
    N3225    N        0.66488    0.19361    0.23301    1.000
    N3226    N        0.72041    0.22903    0.21815    1.000
    N3227    N        0.62156    0.18843    0.13076    1.000
    N3228    N        0.55714    0.22612    0.30624    1.000
    N3229    N        0.49281    0.19597    0.34942    1.000
    N3230    N        0.61685    0.20580    0.34352    1.000
    Si3231   Si       0.68878    0.19564    0.26938    1.000
    N3232    N        0.69416    0.23955    0.27514    1.000
    N3233    N        0.62331    0.24308    0.28743    1.000
    Si3234   Si       0.62104    0.18232    0.30688    1.000
    Si3235   Si       0.54215    0.23236    0.41278    1.000
    Si3236   Si       0.58118    0.19881    0.46840    1.000
    N3237    N        0.56071    0.21448    0.37781    1.000
    N3238    N        0.54762    0.20119    0.44130    1.000
    N3239    N        0.61071    0.22652    0.45320    1.000
    N3240    N        0.66356    0.18705    0.44181    1.000
    N3241    N        0.71461    0.24149    0.38549    1.000
    N3242    N        0.71741    0.19298    0.48965    1.000
    Si3243   Si       0.65510    0.22711    0.44505    1.000
    Si3244   Si       0.53058    0.20743    0.53452    1.000
    Si3245   Si       0.59701    0.22778    0.61362    1.000
    N3246    N        0.56900    0.20790    0.50840    1.000
    Si3247   Si       0.58975    0.19062    0.54494    1.000
    N3248    N        0.60809    0.21802    0.57317    1.000
    N3249    N        0.55437    0.24213    0.61163    1.000
    N3250    N        0.55101    0.18710    0.56599    1.000
    N3251    N        0.66316    0.20697    0.53694    1.000
    Si3252   Si       0.69376    0.22180    0.50983    1.000
    Si3253   Si       0.64203    0.23865    0.55657    1.000
    Si3254   Si       0.59848    0.20828    0.70362    1.000
    N3255    N        0.50358    0.20984    0.65043    1.000
    N3256    N        0.56573    0.22633    0.68164    1.000
    Si3257   Si       0.54470    0.21417    0.64545    1.000
    N3258    N        0.58591    0.22684    0.73983    1.000
    N3259    N        0.51191    0.23159    0.72392    1.000
    Si3260   Si       0.49039    0.23141    0.68637    1.000
    Si3261   Si       0.73995    0.20996    0.70950    1.000
    N3262    N        0.64055    0.21429    0.69833    1.000
    N3263    N        0.69265    0.19875    0.63646    1.000
    N3264    N        0.62047    0.20208    0.64045    1.000
    N3265    N        0.70060    0.19087    0.71569    1.000
    Si3266   Si       0.73559    0.21240    0.63148    1.000
    Si3267   Si       0.65879    0.21800    0.65864    1.000
    Si3268   Si       0.66606    0.21480    0.73541    1.000
    Si3269   Si       0.54542    0.22122    0.81600    1.000
    Si3270   Si       0.59716    0.20375    0.77339    1.000
    N3271    N        0.53339    0.19937    0.85132    1.000
    N3272    N        0.53749    0.19619    0.78245    1.000
    N3273    N        0.58805    0.22716    0.81207    1.000
    Si3274   Si       0.50192    0.20171    0.75737    1.000
    Si3275   Si       0.49219    0.19459    0.86967    1.000
    N3276    N        0.67384    0.21140    0.82884    1.000
    N3277    N        0.63955    0.20064    0.76669    1.000
    Si3278   Si       0.69285    0.18857    0.86070    1.000
    Si3279   Si       0.65743    0.18237    0.80168    1.000
    Si3280   Si       0.54646    0.21492    0.88919    1.000
    N3281    N        0.58307    0.19761    0.90308    1.000
    Si3282   Si       0.59072    0.21310    0.94534    1.000
    N3283    N        0.50472    0.20817    0.97200    1.000
    N3284    N        0.57053    0.21334    0.98303    1.000
    N3285    N        0.50372    0.21442    0.90580    1.000
    Si3286   Si       0.53575    0.18557    0.99058    1.000
    N3287    N        0.71054    0.19271    0.94940    1.000
    Si3288   Si       0.70786    0.23615    0.94883    1.000
    N3289    N        0.72058    0.21052    0.88824    1.000
    N3290    N        0.63454    0.23000    0.99364    1.000
    N3291    N        0.55829    0.27482    0.06784    1.000
    Si3292   Si       0.51869    0.27116    0.04076    1.000
    N3293    N        0.49799    0.28904    0.07547    1.000
    Si3294   Si       0.73215    0.26928    0.01272    1.000
    N3295    N        0.62107    0.28768    0.04088    1.000
    N3296    N        0.63766    0.25310    0.10316    1.000
    Si3297   Si       0.63229    0.24978    0.06087    1.000
    N3298    N        0.72539    0.27328    0.05483    1.000
    N3299    N        0.70004    0.26009    0.11570    1.000
    Si3300   Si       0.66479    0.28530    0.11601    1.000
    N3301    N        0.52924    0.28593    0.21463    1.000
    N3302    N        0.53688    0.28322    0.13584    1.000
    N3303    N        0.59811    0.25114    0.15812    1.000
    Si3304   Si       0.60591    0.29428    0.16564    1.000
    Si3305   Si       0.55671    0.24616    0.14505    1.000
    Si3306   Si       0.72944    0.26459    0.14778    1.000
    Si3307   Si       0.67295    0.29223    0.19166    1.000
    N3308    N        0.66007    0.26541    0.22258    1.000
    N3309    N        0.64803    0.29162    0.15502    1.000
    N3310    N        0.71501    0.29113    0.17975    1.000
    N3311    N        0.59000    0.27157    0.34457    1.000
    N3312    N        0.57004    0.28555    0.27080    1.000
    N3313    N        0.51793    0.26222    0.35955    1.000
    Si3314   Si       0.55720    0.24464    0.34676    1.000
    Si3315   Si       0.58174    0.24510    0.27474    1.000
    Si3316   Si       0.73061    0.25125    0.25475    1.000
    N3317    N        0.65766    0.26965    0.34239    1.000
    Si3318   Si       0.65594    0.26101    0.26532    1.000
    Si3319   Si       0.62397    0.24774    0.33029    1.000
    N3320    N        0.74214    0.29340    0.24673    1.000
    N3321    N        0.57010    0.26837    0.41485    1.000
    N3322    N        0.50239    0.24983    0.42025    1.000
    Si3323   Si       0.60956    0.26586    0.43274    1.000
    N3324    N        0.61472    0.29087    0.46616    1.000
    N3325    N        0.72625    0.29780    0.48855    1.000
    Si3326   Si       0.67993    0.26697    0.38088    1.000
    Si3327   Si       0.64726    0.28056    0.49528    1.000
    N3328    N        0.67273    0.24695    0.48174    1.000
    N3329    N        0.65145    0.25635    0.41323    1.000
    Si3330   Si       0.53367    0.26637    0.58169    1.000
    N3331    N        0.56782    0.29368    0.57545    1.000
    N3332    N        0.50172    0.29461    0.59087    1.000
    N3333    N        0.51538    0.24752    0.54461    1.000
    Si3334   Si       0.57700    0.29374    0.62016    1.000
    N3335    N        0.73942    0.24581    0.60395    1.000
    N3336    N        0.67013    0.25737    0.58531    1.000
    N3337    N        0.62553    0.27138    0.53203    1.000
    Si3338   Si       0.71088    0.26268    0.57330    1.000
    Si3339   Si       0.65528    0.27685    0.62068    1.000
    N3340    N        0.72183    0.24081    0.53715    1.000
    N3341    N        0.61296    0.26811    0.62233    1.000
    N3342    N        0.55831    0.28655    0.70810    1.000
    N3343    N        0.49342    0.27389    0.67454    1.000
    Si3344   Si       0.55263    0.24536    0.71717    1.000
    Si3345   Si       0.52563    0.30153    0.68157    1.000
    N3346    N        0.67612    0.25664    0.73141    1.000
    N3347    N        0.67114    0.26009    0.65637    1.000
    Si3348   Si       0.68544    0.27622    0.69140    1.000
    N3349    N        0.72782    0.28434    0.69131    1.000
    N3350    N        0.52278    0.25592    0.82040    1.000
    N3351    N        0.50535    0.28978    0.77433    1.000
    Si3352   Si       0.60824    0.26460    0.82262    1.000
    Si3353   Si       0.53664    0.29461    0.80652    1.000
    N3354    N        0.58165    0.29865    0.80913    1.000
    N3355    N        0.61849    0.26628    0.86727    1.000
    N3356    N        0.64849    0.26576    0.80221    1.000
    N3357    N        0.71938    0.25954    0.79498    1.000
    Si3358   Si       0.66156    0.28337    0.76342    1.000
    N3359    N        0.68739    0.27538    0.85706    1.000
    Si3360   Si       0.68561    0.25242    0.82186    1.000
    Si3361   Si       0.58986    0.27237    0.90034    1.000
    N3362    N        0.55132    0.25745    0.89651    1.000
    N3363    N        0.51596    0.27726    0.95365    1.000
    Si3364   Si       0.51187    0.26487    0.91103    1.000
    N3365    N        0.60482    0.25257    0.93496    1.000
    Si3366   Si       0.49140    0.24935    0.97559    1.000
    N3367    N        0.64266    0.29742    0.97412    1.000
    N3368    N        0.67155    0.25002    0.92932    1.000
    Si3369   Si       0.63826    0.25705    0.96006    1.000
    N3370    N        0.70076    0.24792    0.99091    1.000
    Si3371   Si       0.65567    0.26624    0.88967    1.000
    N3372    N        0.59749    0.33687    0.01143    1.000
    N3373    N        0.56633    0.33335    0.07711    1.000
    N3374    N        0.50749    0.33687    0.11619    1.000
    Si3375   Si       0.57654    0.30555    0.04236    1.000
    Si3376   Si       0.53719    0.30271    0.09522    1.000
    N3377    N        0.54006    0.30209    0.01490    1.000
    Si3378   Si       0.58884    0.35581    0.10795    1.000
    N3379    N        0.67186    0.32303    0.09619    1.000
    N3380    N        0.67591    0.33537    0.02322    1.000
    Si3381   Si       0.63676    0.31580    0.01216    1.000
    Si3382   Si       0.69373    0.34185    0.06335    1.000
    Si3383   Si       0.71189    0.34084    0.99818    1.000
    N3384    N        0.73576    0.33751    0.06922    1.000
    Si3385   Si       0.48977    0.30762    0.21455    1.000
    Si3386   Si       0.58186    0.35044    0.18160    1.000
    Si3387   Si       0.51499    0.31426    0.15482    1.000
    N3388    N        0.59604    0.32985    0.14172    1.000
    Si3389   Si       0.56341    0.30709    0.23259    1.000
    N3390    N        0.53841    0.34467    0.17746    1.000
    N3391    N        0.59074    0.31367    0.20065    1.000
    N3392    N        0.48485    0.35271    0.22111    1.000
    N3393    N        0.66540    0.33124    0.21014    1.000
    Si3394   Si       0.56120    0.32097    0.29247    1.000
    N3395    N        0.52479    0.32008    0.31723    1.000
    Si3396   Si       0.52019    0.33186    0.35872    1.000
    N3397    N        0.59447    0.33758    0.31272    1.000
    Si3398   Si       0.59639    0.31593    0.35091    1.000
    N3399    N        0.55271    0.34283    0.25572    1.000
    N3400    N        0.65877    0.34517    0.32907    1.000
    Si3401   Si       0.66639    0.33849    0.25396    1.000
    Si3402   Si       0.72947    0.32029    0.35585    1.000
    N3403    N        0.70853    0.35193    0.26164    1.000
    N3404    N        0.71504    0.30714    0.31529    1.000
    Si3405   Si       0.73443    0.32291    0.27876    1.000
    Si3406   Si       0.67264    0.30378    0.31849    1.000
    N3407    N        0.66028    0.30248    0.27650    1.000
    N3408    N        0.56177    0.33293    0.37445    1.000
    N3409    N        0.57432    0.33267    0.43804    1.000
    N3410    N        0.51203    0.31534    0.40353    1.000
    Si3411   Si       0.58852    0.32315    0.47728    1.000
    Si3412   Si       0.59346    0.35253    0.40353    1.000
    Si3413   Si       0.55227    0.30653    0.41096    1.000
    N3414    N        0.49415    0.35410    0.46647    1.000
    N3415    N        0.60238    0.36029    0.49282    1.000
    N3416    N        0.62416    0.32931    0.38401    1.000
    Si3417   Si       0.69923    0.33329    0.48128    1.000
    Si3418   Si       0.66238    0.34199    0.37243    1.000
    N3419    N        0.69297    0.31172    0.37800    1.000
    Si3420   Si       0.52291    0.33149    0.60603    1.000
    Si3421   Si       0.53287    0.33124    0.52799    1.000
    N3422    N        0.53579    0.34963    0.56965    1.000
    N3423    N        0.56576    0.31016    0.51079    1.000
    N3424    N        0.49523    0.31142    0.51956    1.000
    N3425    N        0.59625    0.33250    0.62166    1.000
    Si3426   Si       0.59583    0.30051    0.54373    1.000
    Si3427   Si       0.73647    0.31712    0.52696    1.000
    N3428    N        0.62223    0.33495    0.55134    1.000
    Si3429   Si       0.62630    0.34597    0.59272    1.000
    N3430    N        0.71919    0.35495    0.51440    1.000
    N3431    N        0.65754    0.32005    0.60890    1.000
    Si3432   Si       0.63889    0.35372    0.51479    1.000
    N3433    N        0.66083    0.32125    0.49884    1.000
    N3434    N        0.72299    0.30256    0.56558    1.000
    N3435    N        0.51820    0.33853    0.70038    1.000
    Si3436   Si       0.59094    0.31062    0.72262    1.000
    N3437    N        0.54133    0.30864    0.64087    1.000
    N3438    N        0.60840    0.33570    0.69200    1.000
    Si3439   Si       0.54023    0.35927    0.73293    1.000
    N3440    N        0.67940    0.32164    0.68951    1.000
    N3441    N        0.63047    0.30122    0.73805    1.000
    Si3442   Si       0.72119    0.32691    0.67772    1.000
    Si3443   Si       0.68217    0.35348    0.62799    1.000
    N3444    N        0.72099    0.33279    0.63480    1.000
    Si3445   Si       0.64715    0.33602    0.71295    1.000
    N3446    N        0.51089    0.32845    0.82917    1.000
    Si3447   Si       0.59029    0.33907    0.79268    1.000
    N3448    N        0.57615    0.34175    0.75044    1.000
    N3449    N        0.51490    0.35652    0.76740    1.000
    Si3450   Si       0.49143    0.32221    0.86859    1.000
    N3451    N        0.63172    0.35248    0.79757    1.000
    N3452    N        0.69028    0.31657    0.76941    1.000
    N3453    N        0.67912    0.34786    0.85026    1.000
    Si3454   Si       0.66909    0.35341    0.77522    1.000
    N3455    N        0.73863    0.32506    0.82160    1.000
    N3456    N        0.61512    0.36005    0.86331    1.000
    Si3457   Si       0.72708    0.30245    0.78613    1.000
    Si3458   Si       0.55176    0.34269    0.91565    1.000
    N3459    N        0.58293    0.31481    0.90200    1.000
    N3460    N        0.50814    0.33895    0.90404    1.000
    N3461    N        0.54724    0.34166    0.95798    1.000
    Si3462   Si       0.51889    0.31421    0.97846    1.000
    N3463    N        0.69957    0.33449    0.95648    1.000
    N3464    N        0.62761    0.35395    0.93529    1.000
    Si3465   Si       0.73126    0.34434    0.92977    1.000
    Si3466   Si       0.68937    0.31581    0.87339    1.000
    Si3467   Si       0.62051    0.33588    0.89709    1.000
    Si3468   Si       0.65941    0.32512    0.94465    1.000
    N3469    N        0.72718    0.32247    0.89066    1.000
    N3470    N        0.65539    0.30948    0.90270    1.000
    N3471    N        0.50965    0.39521    0.07750    1.000
    N3472    N        0.53652    0.38376    0.01216    1.000
    Si3473   Si       0.54091    0.41006    0.04730    1.000
    Si3474   Si       0.51907    0.37775    0.11663    1.000
    N3475    N        0.58796    0.41176    0.04637    1.000
    N3476    N        0.62374    0.37936    0.09725    1.000
    N3477    N        0.68845    0.38189    0.08096    1.000
    Si3478   Si       0.66213    0.36419    0.11002    1.000
    N3479    N        0.72157    0.38551    0.00088    1.000
    Si3480   Si       0.61431    0.41901    0.08109    1.000
    N3481    N        0.56152    0.38596    0.12530    1.000
    Si3482   Si       0.50731    0.37392    0.18880    1.000
    N3483    N        0.52989    0.39627    0.21951    1.000
    N3484    N        0.50031    0.39540    0.15248    1.000
    N3485    N        0.67710    0.39364    0.21881    1.000
    Si3486   Si       0.65731    0.36767    0.18910    1.000
    N3487    N        0.67387    0.37908    0.15025    1.000
    N3488    N        0.61476    0.37983    0.18831    1.000
    Si3489   Si       0.71707    0.37923    0.22814    1.000
    N3490    N        0.72690    0.41754    0.17678    1.000
    N3491    N        0.51556    0.37615    0.35788    1.000
    Si3492   Si       0.52486    0.39964    0.32213    1.000
    N3493    N        0.50416    0.38868    0.28616    1.000
    N3494    N        0.56720    0.40564    0.31469    1.000
    Si3495   Si       0.51933    0.36828    0.25239    1.000
    N3496    N        0.63262    0.40885    0.32303    1.000
    N3497    N        0.63974    0.37058    0.26579    1.000
    Si3498   Si       0.62776    0.36967    0.30758    1.000
    Si3499   Si       0.65176    0.41008    0.25041    1.000
    N3500    N        0.73840    0.36333    0.35578    1.000
    Si3501   Si       0.49762    0.40179    0.38850    1.000
    N3502    N        0.55801    0.40280    0.46172    1.000
    Si3503   Si       0.51826    0.38925    0.47495    1.000
    N3504    N        0.60372    0.39283    0.41092    1.000
    Si3505   Si       0.57008    0.41735    0.42273    1.000
    Si3506   Si       0.71021    0.39122    0.37347    1.000
    Si3507   Si       0.70545    0.40452    0.44686    1.000
    N3508    N        0.67069    0.38137    0.38832    1.000
    Si3509   Si       0.64355    0.40945    0.40779    1.000
    N3510    N        0.72744    0.41210    0.40817    1.000
    N3511    N        0.70425    0.36108    0.44954    1.000
    Si3512   Si       0.53971    0.39209    0.55770    1.000
    N3513    N        0.53720    0.37380    0.51277    1.000
    N3514    N        0.54772    0.40834    0.59815    1.000
    N3515    N        0.57701    0.41140    0.54012    1.000
    Si3516   Si       0.58740    0.41381    0.61618    1.000
    Si3517   Si       0.57527    0.39172    0.49968    1.000
    N3518    N        0.50332    0.41622    0.55030    1.000
    N3519    N        0.61655    0.38845    0.59759    1.000
    N3520    N        0.69013    0.38290    0.59608    1.000
    Si3521   Si       0.72869    0.39647    0.58467    1.000
    Si3522   Si       0.65437    0.41052    0.59487    1.000
    N3523    N        0.65865    0.39130    0.50299    1.000
    N3524    N        0.72231    0.41772    0.54845    1.000
    N3525    N        0.49790    0.36781    0.62033    1.000
    Si3526   Si       0.51597    0.40724    0.62612    1.000
    N3527    N        0.58470    0.39395    0.65515    1.000
    N3528    N        0.54443    0.39874    0.71888    1.000
    Si3529   Si       0.56053    0.41642    0.68382    1.000
    Si3530   Si       0.60769    0.35728    0.65506    1.000
    Si3531   Si       0.66734    0.40792    0.66185    1.000
    N3532    N        0.64984    0.37000    0.65015    1.000
    Si3533   Si       0.67367    0.41142    0.73182    1.000
    N3534    N        0.70681    0.39144    0.66465    1.000
    Si3535   Si       0.73568    0.39529    0.69340    1.000
    N3536    N        0.65905    0.37120    0.73733    1.000
    N3537    N        0.71595    0.40575    0.73201    1.000
    Si3538   Si       0.57946    0.38005    0.85309    1.000
    Si3539   Si       0.52015    0.36505    0.80898    1.000
    N3540    N        0.56468    0.36836    0.81488    1.000
    N3541    N        0.49180    0.39969    0.80999    1.000
    Si3542   Si       0.73094    0.39635    0.77091    1.000
    N3543    N        0.69681    0.38108    0.79608    1.000
    Si3544   Si       0.64590    0.37021    0.83547    1.000
    N3545    N        0.64924    0.41316    0.82997    1.000
    Si3546   Si       0.71644    0.36252    0.83162    1.000
    N3547    N        0.50397    0.39958    0.94986    1.000
    N3548    N        0.56409    0.38015    0.89524    1.000
    N3549    N        0.59599    0.39520    0.98009    1.000
    Si3550   Si       0.49846    0.38500    0.99107    1.000
    Si3551   Si       0.57045    0.36280    0.99119    1.000
    N3552    N        0.66496    0.40700    0.95840    1.000
    Si3553   Si       0.62424    0.39479    0.94582    1.000
    N3554    N        0.72625    0.38672    0.92885    1.000
    Si3555   Si       0.70716    0.40337    0.96362    1.000
    N3556    N        0.53784    0.45688    0.05489    1.000
    Si3557   Si       0.60200    0.42649    0.00913    1.000
    Si3558   Si       0.51107    0.46682    0.08817    1.000
    N3559    N        0.57547    0.46164    0.99991    1.000
    N3560    N        0.59957    0.44289    0.11590    1.000
    N3561    N        0.65279    0.43743    0.07295    1.000
    N3562    N        0.71505    0.44090    0.04394    1.000
    Si3563   Si       0.64357    0.46763    0.04419    1.000
    N3564    N        0.64023    0.44805    0.00619    1.000
    Si3565   Si       0.69512    0.42434    0.07949    1.000
    N3566    N        0.70527    0.44411    0.11699    1.000
    N3567    N        0.53033    0.45102    0.12342    1.000
    Si3568   Si       0.54224    0.43463    0.20960    1.000
    Si3569   Si       0.56469    0.42911    0.13747    1.000
    N3570    N        0.57272    0.43054    0.17998    1.000
    Si3571   Si       0.49898    0.44072    0.15055    1.000
    N3572    N        0.50828    0.45449    0.19071    1.000
    Si3573   Si       0.73767    0.44323    0.20829    1.000
    N3574    N        0.64961    0.43728    0.16513    1.000
    N3575    N        0.70966    0.47268    0.21843    1.000
    N3576    N        0.61995    0.43468    0.23205    1.000
    Si3577   Si       0.61543    0.42250    0.18963    1.000
    Si3578   Si       0.68913    0.42098    0.15262    1.000
    Si3579   Si       0.62915    0.46850    0.14277    1.000
    N3580    N        0.51289    0.43988    0.33319    1.000
    N3581    N        0.58319    0.45993    0.35154    1.000
    Si3582   Si       0.59843    0.43522    0.31669    1.000
    N3583    N        0.60373    0.46613    0.28789    1.000
    Si3584   Si       0.54015    0.47216    0.34126    1.000
    N3585    N        0.55167    0.45529    0.24837    1.000
    Si3586   Si       0.51849    0.47764    0.26875    1.000
    Si3587   Si       0.59355    0.46666    0.24597    1.000
    Si3588   Si       0.69469    0.47004    0.26064    1.000
    N3589    N        0.67578    0.43341    0.27584    1.000
    Si3590   Si       0.67020    0.43202    0.31913    1.000
    N3591    N        0.73399    0.47033    0.28144    1.000
    N3592    N        0.70464    0.42284    0.34484    1.000
    Si3593   Si       0.50941    0.46842    0.48775    1.000
    Si3594   Si       0.53607    0.46707    0.41418    1.000
    N3595    N        0.58002    0.46098    0.42395    1.000
    Si3596   Si       0.60178    0.47090    0.46398    1.000
    Si3597   Si       0.60214    0.47467    0.38732    1.000
    N3598    N        0.50048    0.42764    0.48502    1.000
    N3599    N        0.53169    0.42414    0.40455    1.000
    N3600    N        0.63923    0.44989    0.39553    1.000
    N3601    N        0.70675    0.47575    0.44893    1.000
    Si3602   Si       0.65275    0.42927    0.48429    1.000
    N3603    N        0.66620    0.42125    0.44357    1.000
    Si3604   Si       0.72143    0.46938    0.48796    1.000
    N3605    N        0.61198    0.44211    0.49290    1.000
    Si3606   Si       0.66749    0.46754    0.42552    1.000
    N3607    N        0.72957    0.42031    0.48024    1.000
    Si3608   Si       0.49708    0.45396    0.57303    1.000
    Si3609   Si       0.60918    0.44024    0.53800    1.000
    N3610    N        0.59744    0.47940    0.55233    1.000
    N3611    N        0.64559    0.43114    0.55859    1.000
    N3612    N        0.67946    0.45762    0.50403    1.000
    Si3613   Si       0.68519    0.43974    0.54324    1.000
    N3614    N        0.69848    0.47455    0.56675    1.000
    N3615    N        0.59469    0.45532    0.62208    1.000
    N3616    N        0.50196    0.45658    0.72434    1.000
    N3617    N        0.58264    0.45337    0.68710    1.000
    N3618    N        0.52175    0.42140    0.66621    1.000
    Si3619   Si       0.50440    0.41831    0.70481    1.000
    N3620    N        0.65095    0.42691    0.69845    1.000
    Si3621   Si       0.63460    0.46987    0.62944    1.000
    Si3622   Si       0.62266    0.45962    0.70210    1.000
    N3623    N        0.66030    0.43512    0.62904    1.000
    N3624    N        0.61934    0.47911    0.73905    1.000
    N3625    N        0.53645    0.45990    0.79179    1.000
    Si3626   Si       0.50099    0.44215    0.81094    1.000
    N3627    N        0.49557    0.45908    0.84897    1.000
    N3628    N        0.61283    0.47316    0.81599    1.000
    N3629    N        0.58763    0.42309    0.85554    1.000
    Si3630   Si       0.56967    0.47855    0.81213    1.000
    Si3631   Si       0.51115    0.47797    0.76126    1.000
    Si3632   Si       0.62443    0.44345    0.84671    1.000
    N3633    N        0.66861    0.43854    0.76715    1.000
    N3634    N        0.69735    0.46095    0.83103    1.000
    Si3635   Si       0.68650    0.42572    0.80662    1.000
    N3636    N        0.73368    0.43286    0.79201    1.000
    Si3637   Si       0.72794    0.47463    0.80006    1.000
    N3638    N        0.51815    0.46721    0.95901    1.000
    N3639    N        0.54083    0.44861    0.90037    1.000
    Si3640   Si       0.51222    0.43541    0.92823    1.000
    N3641    N        0.61059    0.42753    0.92161    1.000
    Si3642   Si       0.57671    0.42357    0.89663    1.000
    Si3643   Si       0.52542    0.47979    0.87419    1.000
    Si3644   Si       0.62091    0.47140    0.91794    1.000
    N3645    N        0.63827    0.47163    0.87701    1.000
    Si3646   Si       0.66469    0.44885    0.97135    1.000
    N3647    N        0.74195    0.44674    0.90652    1.000
    N3648    N        0.70824    0.44697    0.97135    1.000
    N3649    N        0.55629    0.52379    0.04058    1.000
    N3650    N        0.51171    0.51234    0.09131    1.000
    N3651    N        0.57858    0.52503    0.11033    1.000
    N3652    N        0.60748    0.48482    0.05922    1.000
    Si3653   Si       0.54787    0.53617    0.08152    1.000
    Si3654   Si       0.56871    0.48145    0.03748    1.000
    Si3655   Si       0.61503    0.51580    0.08892    1.000
    N3656    N        0.67325    0.49782    0.03782    1.000
    N3657    N        0.72998    0.49971    0.08224    1.000
    Si3658   Si       0.71384    0.48417    0.04401    1.000
    N3659    N        0.64485    0.50206    0.11777    1.000
    Si3660   Si       0.73060    0.47939    0.12018    1.000
    N3661    N        0.59229    0.50840    0.23214    1.000
    Si3662   Si       0.58042    0.52413    0.15272    1.000
    Si3663   Si       0.55182    0.52425    0.21999    1.000
    N3664    N        0.51369    0.50677    0.23374    1.000
    N3665    N        0.60557    0.49220    0.16982    1.000
    N3666    N        0.54640    0.53181    0.17676    1.000
    Si3667   Si       0.71027    0.51296    0.19724    1.000
    Si3668   Si       0.62583    0.52400    0.20018    1.000
    N3669    N        0.66676    0.51596    0.18346    1.000
    Si3670   Si       0.67315    0.52607    0.14143    1.000
    N3671    N        0.71324    0.50997    0.14586    1.000
    N3672    N        0.53097    0.49796    0.30432    1.000
    N3673    N        0.61236    0.53476    0.29844    1.000
    Si3674   Si       0.63339    0.49671    0.29649    1.000
    N3675    N        0.66531    0.50116    0.26786    1.000
    Si3676   Si       0.67630    0.49962    0.34943    1.000
    N3677    N        0.70458    0.51963    0.32333    1.000
    N3678    N        0.65637    0.47316    0.32557    1.000
    Si3679   Si       0.55780    0.52771    0.38008    1.000
    N3680    N        0.53580    0.49087    0.37928    1.000
    N3681    N        0.59242    0.51012    0.48312    1.000
    N3682    N        0.59999    0.51865    0.38667    1.000
    Si3683   Si       0.52193    0.53051    0.44529    1.000
    N3684    N        0.52457    0.48790    0.45063    1.000
    Si3685   Si       0.72124    0.50119    0.41469    1.000
    N3686    N        0.69056    0.48572    0.38957    1.000
    N3687    N        0.64020    0.48765    0.45042    1.000
    Si3688   Si       0.63394    0.51857    0.48225    1.000
    Si3689   Si       0.55767    0.49241    0.55671    1.000
    Si3690   Si       0.55631    0.52403    0.50452    1.000
    N3691    N        0.56289    0.53436    0.54653    1.000
    N3692    N        0.52362    0.48715    0.58393    1.000
    N3693    N        0.53871    0.48442    0.51802    1.000
    Si3694   Si       0.51145    0.50573    0.62115    1.000
    Si3695   Si       0.62411    0.51071    0.56427    1.000
    N3696    N        0.71896    0.50967    0.51047    1.000
    Si3697   Si       0.69122    0.50437    0.60484    1.000
    N3698    N        0.64630    0.49933    0.59935    1.000
    N3699    N        0.64743    0.51731    0.52511    1.000
    Si3700   Si       0.68853    0.50853    0.53999    1.000
    N3701    N        0.69757    0.53593    0.57451    1.000
    N3702    N        0.73391    0.49201    0.61355    1.000
    N3703    N        0.54841    0.50775    0.64469    1.000
    Si3704   Si       0.58287    0.48278    0.65666    1.000
    N3705    N        0.58621    0.53836    0.72301    1.000
    N3706    N        0.69046    0.52027    0.64749    1.000
    Si3707   Si       0.71806    0.50732    0.73048    1.000
    Si3708   Si       0.73263    0.51602    0.65061    1.000
    N3709    N        0.67932    0.48905    0.71665    1.000
    N3710    N        0.63019    0.49020    0.66859    1.000
    Si3711   Si       0.66486    0.50977    0.68077    1.000
    N3712    N        0.57993    0.51642    0.78973    1.000
    N3713    N        0.55651    0.49578    0.85076    1.000
    N3714    N        0.52034    0.52232    0.75956    1.000
    Si3715   Si       0.60255    0.51595    0.75500    1.000
    Si3716   Si       0.61990    0.51687    0.81483    1.000
    N3717    N        0.66751    0.52117    0.83714    1.000
    N3718    N        0.70145    0.49999    0.77650    1.000
    N3719    N        0.64115    0.52480    0.77655    1.000
    Si3720   Si       0.67752    0.48552    0.86118    1.000
    Si3721   Si       0.66140    0.48152    0.75547    1.000
    Si3722   Si       0.67933    0.53222    0.79489    1.000
    Si3723   Si       0.55837    0.48197    0.96380    1.000
    N3724    N        0.58703    0.49217    0.93263    1.000
    N3725    N        0.49476    0.50843    0.88898    1.000
    N3726    N        0.54884    0.52471    0.97064    1.000
    Si3727   Si       0.57398    0.53352    0.93462    1.000
    Si3728   Si       0.73980    0.48804    0.90640    1.000
    N3729    N        0.69857    0.49943    0.89740    1.000
    N3730    N        0.65391    0.48154    0.94679    1.000
    Si3731   Si       0.67532    0.51567    0.93121    1.000
    N3732    N        0.64601    0.53982    0.90832    1.000
    N3733    N        0.54122    0.57815    0.07123    1.000
    N3734    N        0.57279    0.58348    0.01206    1.000
    N3735    N        0.50449    0.55886    0.01274    1.000
    Si3736   Si       0.54699    0.54898    0.00632    1.000
    Si3737   Si       0.50415    0.58568    0.04645    1.000
    Si3738   Si       0.66055    0.54002    0.03762    1.000
    Si3739   Si       0.64668    0.58538    0.09481    1.000
    N3740    N        0.63431    0.55012    0.07088    1.000
    N3741    N        0.70028    0.55516    0.05210    1.000
    N3742    N        0.64512    0.55572    0.00210    1.000
    N3743    N        0.56162    0.56278    0.23794    1.000
    N3744    N        0.50800    0.58269    0.18991    1.000
    Si3745   Si       0.50484    0.54467    0.16945    1.000
    N3746    N        0.61060    0.55275    0.16986    1.000
    Si3747   Si       0.54581    0.59572    0.20620    1.000
    N3748    N        0.70311    0.54296    0.23135    1.000
    N3749    N        0.66951    0.56915    0.12924    1.000
    Si3750   Si       0.72371    0.57858    0.21809    1.000
    N3751    N        0.63519    0.55196    0.23323    1.000
    N3752    N        0.71882    0.57652    0.17364    1.000
    Si3753   Si       0.59122    0.56433    0.32133    1.000
    N3754    N        0.52003    0.58098    0.29270    1.000
    N3755    N        0.55486    0.54803    0.34116    1.000
    N3756    N        0.60673    0.58347    0.35705    1.000
    Si3757   Si       0.59914    0.54473    0.25594    1.000
    N3758    N        0.58940    0.59538    0.29042    1.000
    Si3759   Si       0.52214    0.54116    0.31531    1.000
    Si3760   Si       0.55217    0.59453    0.26841    1.000
    N3761    N        0.67770    0.57409    0.28720    1.000
    Si3762   Si       0.68454    0.55831    0.32630    1.000
    N3763    N        0.70037    0.58538    0.35637    1.000
    Si3764   Si       0.66981    0.54298    0.25610    1.000
    N3765    N        0.65946    0.53897    0.35902    1.000
    N3766    N        0.54407    0.55298    0.41255    1.000
    N3767    N        0.52777    0.54876    0.48356    1.000
    Si3768   Si       0.53070    0.59373    0.40776    1.000
    Si3769   Si       0.68604    0.56075    0.39022    1.000
    N3770    N        0.71667    0.54395    0.41333    1.000
    Si3771   Si       0.62562    0.55274    0.38147    1.000
    N3772    N        0.64001    0.56191    0.47828    1.000
    N3773    N        0.71029    0.58379    0.46942    1.000
    N3774    N        0.64948    0.57360    0.41150    1.000
    Si3775   Si       0.64585    0.59547    0.44890    1.000
    Si3776   Si       0.57581    0.57419    0.55974    1.000
    N3777    N        0.57493    0.57548    0.60451    1.000
    Si3778   Si       0.50410    0.57096    0.57022    1.000
    N3779    N        0.51175    0.54987    0.61192    1.000
    Si3780   Si       0.49331    0.56642    0.50143    1.000
    N3781    N        0.59554    0.58736    0.52005    1.000
    N3782    N        0.53626    0.59416    0.55388    1.000
    N3783    N        0.48650    0.54540    0.53803    1.000
    N3784    N        0.62115    0.55462    0.56699    1.000
    Si3785   Si       0.63280    0.56373    0.52292    1.000
    Si3786   Si       0.71879    0.57270    0.57117    1.000
    Si3787   Si       0.65221    0.58786    0.58102    1.000
    N3788    N        0.66763    0.58658    0.53655    1.000
    N3789    N        0.73420    0.57293    0.52994    1.000
    N3790    N        0.69472    0.60093    0.59489    1.000
    Si3791   Si       0.49525    0.54211    0.72937    1.000
    N3792    N        0.51774    0.58048    0.72261    1.000
    N3793    N        0.58623    0.56121    0.66209    1.000
    Si3794   Si       0.55605    0.55064    0.63442    1.000
    Si3795   Si       0.61263    0.55602    0.69511    1.000
    Si3796   Si       0.60298    0.59011    0.63277    1.000
    Si3797   Si       0.56434    0.58855    0.72574    1.000
    N3798    N        0.60955    0.59587    0.71627    1.000
    N3799    N        0.64568    0.58288    0.62764    1.000
    N3800    N        0.71516    0.55269    0.72786    1.000
    Si3801   Si       0.68486    0.57959    0.70920    1.000
    N3802    N        0.65491    0.55000    0.69454    1.000
    N3803    N        0.53766    0.55989    0.82527    1.000
    N3804    N        0.56633    0.58329    0.76996    1.000
    Si3805   Si       0.54685    0.54585    0.78394    1.000
    N3806    N        0.60785    0.54007    0.84914    1.000
    Si3807   Si       0.56423    0.53879    0.85420    1.000
    Si3808   Si       0.49173    0.59603    0.75860    1.000
    N3809    N        0.68565    0.57551    0.79495    1.000
    Si3810   Si       0.70039    0.58326    0.83478    1.000
    N3811    N        0.66775    0.58383    0.86326    1.000
    Si3812   Si       0.64751    0.54609    0.86532    1.000
    N3813    N        0.73733    0.56886    0.85174    1.000
    Si3814   Si       0.53074    0.58543    0.90100    1.000
    N3815    N        0.49753    0.56901    0.92406    1.000
    N3816    N        0.59813    0.56727    0.94932    1.000
    N3817    N        0.55920    0.55279    0.89629    1.000
    Si3818   Si       0.60995    0.57982    0.99057    1.000
    Si3819   Si       0.67655    0.57535    0.97626    1.000
    N3820    N        0.69710    0.54409    0.95513    1.000
    Si3821   Si       0.62772    0.57876    0.92029    1.000
    N3822    N        0.59326    0.63373    0.06292    1.000
    N3823    N        0.52041    0.62627    0.04080    1.000
    Si3824   Si       0.56051    0.60879    0.04748    1.000
    Si3825   Si       0.60496    0.64391    0.10326    1.000
    N3826    N        0.61575    0.60553    0.12011    1.000
    Si3827   Si       0.61607    0.65148    0.02788    1.000
    N3828    N        0.66517    0.61300    0.06760    1.000
    N3829    N        0.69846    0.60246    0.00198    1.000
    N3830    N        0.73170    0.61660    0.06693    1.000
    Si3831   Si       0.69860    0.59776    0.04518    1.000
    Si3832   Si       0.73546    0.60759    0.11042    1.000
    N3833    N        0.62638    0.62121    0.99929    1.000
    N3834    N        0.53668    0.62204    0.23936    1.000
    N3835    N        0.57585    0.61036    0.17784    1.000
    Si3836   Si       0.50268    0.64800    0.23344    1.000
    N3837    N        0.49304    0.63745    0.13473    1.000
    Si3838   Si       0.61435    0.59385    0.16303    1.000
    Si3839   Si       0.64479    0.64178    0.21281    1.000
    N3840    N        0.71495    0.61476    0.24082    1.000
    N3841    N        0.70882    0.63040    0.13514    1.000
    Si3842   Si       0.68579    0.59945    0.15594    1.000
    N3843    N        0.65102    0.61338    0.17998    1.000
    N3844    N        0.57460    0.64534    0.34037    1.000
    Si3845   Si       0.54012    0.64129    0.36605    1.000
    Si3846   Si       0.61096    0.62620    0.35782    1.000
    N3847    N        0.51373    0.60661    0.36920    1.000
    Si3848   Si       0.61828    0.62854    0.28415    1.000
    Si3849   Si       0.68705    0.61450    0.27361    1.000
    N3850    N        0.70137    0.64124    0.30465    1.000
    N3851    N        0.63652    0.63772    0.32352    1.000
    N3852    N        0.64895    0.62721    0.25383    1.000
    Si3853   Si       0.59123    0.64254    0.42409    1.000
    N3854    N        0.55899    0.62644    0.40211    1.000
    N3855    N        0.60655    0.61482    0.45482    1.000
    N3856    N        0.49709    0.60030    0.43304    1.000
    Si3857   Si       0.66464    0.65722    0.48930    1.000
    Si3858   Si       0.71489    0.62134    0.37602    1.000
    Si3859   Si       0.71357    0.62756    0.45677    1.000
    N3860    N        0.66916    0.63483    0.44894    1.000
    N3861    N        0.68462    0.65174    0.37178    1.000
    N3862    N        0.72346    0.61113    0.41765    1.000
    N3863    N        0.62310    0.64645    0.39484    1.000
    Si3864   Si       0.52465    0.62677    0.52803    1.000
    N3865    N        0.48633    0.60933    0.51669    1.000
    Si3866   Si       0.59443    0.62240    0.49598    1.000
    N3867    N        0.55279    0.63865    0.49735    1.000
    N3868    N        0.62705    0.64658    0.50914    1.000
    N3869    N        0.62773    0.62505    0.57958    1.000
    N3870    N        0.70335    0.63801    0.50337    1.000
    Si3871   Si       0.62904    0.64697    0.61770    1.000
    Si3872   Si       0.70111    0.59437    0.50975    1.000
    Si3873   Si       0.58491    0.65023    0.68461    1.000
    N3874    N        0.59964    0.63184    0.64622    1.000
    N3875    N        0.55670    0.62826    0.70800    1.000
    Si3876   Si       0.51259    0.62252    0.70129    1.000
    N3877    N        0.50478    0.60784    0.65923    1.000
    Si3878   Si       0.63340    0.62875    0.72907    1.000
    N3879    N        0.67340    0.61341    0.73634    1.000
    Si3880   Si       0.68213    0.60165    0.63669    1.000
    N3881    N        0.66765    0.64370    0.63745    1.000
    N3882    N        0.70551    0.59473    0.67210    1.000
    N3883    N        0.55638    0.62942    0.81931    1.000
    Si3884   Si       0.58849    0.61295    0.79377    1.000
    N3885    N        0.50876    0.60623    0.86685    1.000
    Si3886   Si       0.52353    0.60149    0.82548    1.000
    N3887    N        0.48988    0.61087    0.79908    1.000
    N3888    N        0.61293    0.63787    0.76707    1.000
    N3889    N        0.61807    0.60567    0.82179    1.000
    Si3890   Si       0.64000    0.61407    0.85658    1.000
    N3891    N        0.71656    0.62441    0.83066    1.000
    Si3892   Si       0.69534    0.61700    0.77448    1.000
    N3893    N        0.65578    0.65607    0.85514    1.000
    N3894    N        0.73823    0.61276    0.76414    1.000
    N3895    N        0.48794    0.63394    0.95638    1.000
    Si3896   Si       0.58967    0.63780    0.90696    1.000
    N3897    N        0.54984    0.62145    0.91824    1.000
    Si3898   Si       0.52149    0.65092    0.93367    1.000
    N3899    N        0.61625    0.60751    0.89232    1.000
    Si3900   Si       0.71408    0.63768    0.98472    1.000
    N3901    N        0.65505    0.59996    0.94798    1.000
    Si3902   Si       0.64130    0.63836    0.96252    1.000
    Si3903   Si       0.50234    0.66793    0.04656    1.000
    N3904    N        0.59247    0.68233    0.00363    1.000
    N3905    N        0.52998    0.69765    0.03332    1.000
    N3906    N        0.58257    0.70317    0.07444    1.000
    N3907    N        0.49177    0.68728    0.08642    1.000
    Si3908   Si       0.57384    0.70878    0.03266    1.000
    Si3909   Si       0.57768    0.70824    0.11861    1.000
    N3910    N        0.70829    0.67934    0.07943    1.000
    N3911    N        0.65219    0.67534    0.03735    1.000
    N3912    N        0.64090    0.66944    0.10254    1.000
    Si3913   Si       0.66969    0.65699    0.07296    1.000
    N3914    N        0.73425    0.66669    0.01292    1.000
    Si3915   Si       0.65618    0.71671    0.01963    1.000
    N3916    N        0.58054    0.66466    0.13244    1.000
    N3917    N        0.53949    0.67268    0.18897    1.000
    Si3918   Si       0.50191    0.66607    0.16813    1.000
    N3919    N        0.60707    0.66373    0.20576    1.000
    N3920    N        0.50586    0.68964    0.24333    1.000
    Si3921   Si       0.53231    0.70773    0.21486    1.000
    Si3922   Si       0.57620    0.65315    0.17539    1.000
    Si3923   Si       0.60115    0.68925    0.24139    1.000
    Si3924   Si       0.64850    0.70861    0.11898    1.000
    N3925    N        0.67177    0.67641    0.21196    1.000
    N3926    N        0.68434    0.69748    0.14259    1.000
    Si3927   Si       0.67398    0.71426    0.23701    1.000
    Si3928   Si       0.71619    0.67087    0.12561    1.000
    Si3929   Si       0.69514    0.70120    0.18326    1.000
    N3930    N        0.73603    0.69304    0.18818    1.000
    Si3931   Si       0.58368    0.68147    0.31531    1.000
    N3932    N        0.59715    0.66496    0.27798    1.000
    Si3933   Si       0.51725    0.70732    0.33633    1.000
    N3934    N        0.55011    0.70680    0.30558    1.000
    N3935    N        0.61060    0.70895    0.33119    1.000
    Si3936   Si       0.67468    0.66177    0.33209    1.000
    N3937    N        0.68695    0.70326    0.33038    1.000
    Si3938   Si       0.71747    0.71126    0.30217    1.000
    N3939    N        0.71071    0.71105    0.25883    1.000
    N3940    N        0.51798    0.67852    0.36869    1.000
    Si3941   Si       0.50769    0.69638    0.40847    1.000
    Si3942   Si       0.54589    0.67381    0.47168    1.000
    N3943    N        0.57804    0.67944    0.44226    1.000
    N3944    N        0.51095    0.67024    0.44257    1.000
    N3945    N        0.67660    0.69739    0.42299    1.000
    Si3946   Si       0.66440    0.65987    0.40883    1.000
    N3947    N        0.67495    0.69888    0.49665    1.000
    Si3948   Si       0.55056    0.68999    0.54001    1.000
    N3949    N        0.58734    0.67647    0.55810    1.000
    N3950    N        0.51723    0.66377    0.54934    1.000
    N3951    N        0.54465    0.70646    0.50024    1.000
    Si3952   Si       0.59397    0.71110    0.58727    1.000
    N3953    N        0.49357    0.67041    0.61573    1.000
    N3954    N        0.65954    0.68153    0.56103    1.000
    N3955    N        0.73166    0.68525    0.54045    1.000
    Si3956   Si       0.69089    0.70265    0.53601    1.000
    N3957    N        0.72942    0.67383    0.61153    1.000
    N3958    N        0.62420    0.68892    0.61242    1.000
    Si3959   Si       0.62530    0.65703    0.55221    1.000
    Si3960   Si       0.66008    0.71220    0.59076    1.000
    N3961    N        0.56273    0.68826    0.67521    1.000
    N3962    N        0.50151    0.66470    0.68603    1.000
    Si3963   Si       0.52348    0.70222    0.68945    1.000
    N3964    N        0.51809    0.70769    0.73200    1.000
    N3965    N        0.67045    0.71797    0.70206    1.000
    Si3966   Si       0.62819    0.70673    0.71502    1.000
    Si3967   Si       0.71354    0.70809    0.70279    1.000
    Si3968   Si       0.69312    0.67938    0.63609    1.000
    N3969    N        0.61994    0.66310    0.70588    1.000
    N3970    N        0.71792    0.67871    0.67310    1.000
    N3971    N        0.71901    0.69445    0.74477    1.000
    N3972    N        0.53017    0.69095    0.84063    1.000
    Si3973   Si       0.56630    0.66895    0.83349    1.000
    N3974    N        0.60601    0.68133    0.81702    1.000
    Si3975   Si       0.49700    0.71065    0.81759    1.000
    Si3976   Si       0.62313    0.68376    0.85929    1.000
    N3977    N        0.71767    0.69251    0.84371    1.000
    N3978    N        0.64450    0.70048    0.76280    1.000
    Si3979   Si       0.63540    0.66607    0.78963    1.000
    Si3980   Si       0.69283    0.66027    0.83241    1.000
    Si3981   Si       0.68616    0.69845    0.77137    1.000
    N3982    N        0.67967    0.65690    0.78973    1.000
    N3983    N        0.58603    0.66598    0.87387    1.000
    Si3984   Si       0.58424    0.68656    0.95998    1.000
    Si3985   Si       0.51089    0.70411    0.87684    1.000
    N3986    N        0.54132    0.68266    0.95526    1.000
    N3987    N        0.49963    0.66853    0.89804    1.000
    N3988    N        0.60701    0.65753    0.94071    1.000
    N3989    N        0.68963    0.71417    0.91597    1.000
    N3990    N        0.67917    0.66252    0.96875    1.000
    Si3991   Si       0.68481    0.70325    0.95585    1.000
    Si3992   Si       0.52172    0.74092    0.02255    1.000
    N3993    N        0.56523    0.74941    0.02042    1.000
    N3994    N        0.50028    0.75028    0.05727    1.000
    Si3995   Si       0.50930    0.72628    0.09150    1.000
    N3996    N        0.48711    0.75519    0.11969    1.000
    Si3997   Si       0.60042    0.77231    0.01368    1.000
    N3998    N        0.62883    0.74644    0.03530    1.000
    N3999    N        0.66734    0.73558    0.09178    1.000
    N4000    N        0.69682    0.73395    0.03211    1.000
    Si4001   Si       0.70384    0.72144    0.07440    1.000
    Si4002   Si       0.64386    0.76735    0.06984    1.000
    Si4003   Si       0.69903    0.77532    0.02162    1.000
    N4004    N        0.53894    0.72324    0.12360    1.000
    Si4005   Si       0.50795    0.73629    0.15322    1.000
    N4006    N        0.52320    0.74606    0.19242    1.000
    N4007    N        0.56739    0.71807    0.24021    1.000
    N4008    N        0.61380    0.73066    0.13135    1.000
    N4009    N        0.68148    0.73789    0.20162    1.000
    Si4010   Si       0.55607    0.73938    0.27596    1.000
    N4011    N        0.51894    0.74533    0.35696    1.000
    N4012    N        0.52275    0.76445    0.27279    1.000
    N4013    N        0.58812    0.76764    0.27605    1.000
    Si4014   Si       0.61121    0.74559    0.35580    1.000
    N4015    N        0.72005    0.75474    0.31790    1.000
    Si4016   Si       0.68890    0.74296    0.34950    1.000
    Si4017   Si       0.62482    0.76130    0.25622    1.000
    N4018    N        0.65093    0.76236    0.35487    1.000
    N4019    N        0.63386    0.71888    0.25176    1.000
    N4020    N        0.53794    0.72731    0.41540    1.000
    Si4021   Si       0.55449    0.75535    0.38070    1.000
    N4022    N        0.59461    0.73390    0.39260    1.000
    Si4023   Si       0.53302    0.76393    0.44147    1.000
    N4024    N        0.56876    0.75630    0.46273    1.000
    Si4025   Si       0.58507    0.72244    0.43539    1.000
    Si4026   Si       0.60998    0.76224    0.47963    1.000
    N4027    N        0.49420    0.75622    0.45694    1.000
    N4028    N        0.70974    0.75135    0.38516    1.000
    Si4029   Si       0.71309    0.72183    0.41719    1.000
    Si4030   Si       0.66702    0.72069    0.46096    1.000
    N4031    N        0.62499    0.72840    0.45779    1.000
    N4032    N        0.70302    0.74567    0.45355    1.000
    Si4033   Si       0.55435    0.74748    0.51476    1.000
    Si4034   Si       0.55359    0.75793    0.59235    1.000
    N4035    N        0.55329    0.72959    0.55819    1.000
    N4036    N        0.59526    0.76186    0.52061    1.000
    N4037    N        0.57022    0.72936    0.61912    1.000
    N4038    N        0.51656    0.77289    0.60905    1.000
    N4039    N        0.62644    0.73641    0.57653    1.000
    N4040    N        0.69460    0.73458    0.56734    1.000
    Si4041   Si       0.72580    0.75939    0.58325    1.000
    Si4042   Si       0.57876    0.72400    0.65874    1.000
    N4043    N        0.59789    0.73304    0.73565    1.000
    N4044    N        0.55455    0.75315    0.68265    1.000
    N4045    N        0.50466    0.72635    0.65702    1.000
    Si4046   Si       0.57194    0.76598    0.72068    1.000
    Si4047   Si       0.51814    0.77137    0.65686    1.000
    Si4048   Si       0.66042    0.73864    0.66537    1.000
    N4049    N        0.61824    0.72585    0.67278    1.000
    N4050    N        0.67806    0.71799    0.63199    1.000
    N4051    N        0.51953    0.73931    0.79464    1.000
    N4052    N        0.56553    0.75085    0.85704    1.000
    Si4053   Si       0.55373    0.75649    0.81483    1.000
    N4054    N        0.59561    0.74998    0.80336    1.000
    Si4055   Si       0.51054    0.74697    0.75340    1.000
    Si4056   Si       0.60851    0.75211    0.84623    1.000
    Si4057   Si       0.62194    0.73807    0.77125    1.000
    N4058    N        0.69354    0.73489    0.79209    1.000
    Si4059   Si       0.71092    0.73387    0.83112    1.000
    N4060    N        0.69545    0.75617    0.86382    1.000
    N4061    N        0.63441    0.72420    0.86650    1.000
    N4062    N        0.64652    0.77054    0.75980    1.000
    N4063    N        0.51416    0.74748    0.97933    1.000
    N4064    N        0.52177    0.73021    0.91015    1.000
    N4065    N        0.59351    0.72342    0.94218    1.000
    Si4066   Si       0.60555    0.76311    0.93519    1.000
    Si4067   Si       0.54456    0.76173    0.89326    1.000
    Si4068   Si       0.51259    0.71462    0.95009    1.000
    N4069    N        0.64662    0.76882    0.91940    1.000
    Si4070   Si       0.65747    0.76991    0.96515    1.000
    Si4071   Si       0.72978    0.73041    0.92349    1.000
    N4072    N        0.65789    0.72814    0.97656    1.000
    Si4073   Si       0.66527    0.74083    0.89121    1.000
    N4074    N        0.72644    0.71854    0.96503    1.000
    N4075    N        0.59437    0.81033    0.03332    1.000
    N4076    N        0.54842    0.81405    0.09820    1.000
    Si4077   Si       0.58350    0.81554    0.07609    1.000
    N4078    N        0.61236    0.78925    0.09362    1.000
    N4079    N        0.67279    0.79290    0.05172    1.000
    N4080    N        0.58649    0.79239    0.15974    1.000
    N4081    N        0.51864    0.80477    0.16157    1.000
    Si4082   Si       0.52477    0.78888    0.20113    1.000
    Si4083   Si       0.55603    0.81506    0.14084    1.000
    Si4084   Si       0.59755    0.80665    0.19901    1.000
    N4085    N        0.56048    0.80573    0.22398    1.000
    Si4086   Si       0.66537    0.77653    0.19553    1.000
    N4087    N        0.69268    0.80311    0.21273    1.000
    Si4088   Si       0.61783    0.77629    0.13623    1.000
    N4089    N        0.62705    0.78151    0.21812    1.000
    N4090    N        0.72540    0.79673    0.14355    1.000
    Si4091   Si       0.68906    0.81818    0.14031    1.000
    N4092    N        0.65598    0.78918    0.15553    1.000
    Si4093   Si       0.73487    0.80580    0.22299    1.000
    Si4094   Si       0.57461    0.80887    0.26536    1.000
    N4095    N        0.51381    0.81111    0.35120    1.000
    Si4096   Si       0.55584    0.81243    0.33799    1.000
    N4097    N        0.57857    0.77877    0.34865    1.000
    Si4098   Si       0.48779    0.77656    0.36213    1.000
    N4099    N        0.55097    0.82805    0.29799    1.000
    N4100    N        0.61384    0.83118    0.26530    1.000
    Si4101   Si       0.70500    0.78538    0.28789    1.000
    Si4102   Si       0.64862    0.81670    0.29063    1.000
    Si4103   Si       0.64944    0.80440    0.36792    1.000
    N4104    N        0.69104    0.82936    0.28992    1.000
    N4105    N        0.63626    0.82711    0.33232    1.000
    N4106    N        0.73724    0.78333    0.25886    1.000
    N4107    N        0.66094    0.77613    0.27834    1.000
    N4108    N        0.54672    0.78879    0.40771    1.000
    Si4109   Si       0.55497    0.83181    0.40979    1.000
    N4110    N        0.62720    0.81217    0.40310    1.000
    Si4111   Si       0.62127    0.82489    0.44248    1.000
    Si4112   Si       0.72028    0.79465    0.39525    1.000
    Si4113   Si       0.71956    0.78375    0.46707    1.000
    N4114    N        0.69082    0.81671    0.37297    1.000
    N4115    N        0.63311    0.79976    0.47414    1.000
    N4116    N        0.71685    0.81329    0.43575    1.000
    N4117    N        0.58399    0.78914    0.58487    1.000
    Si4118   Si       0.50115    0.81473    0.51233    1.000
    N4119    N        0.49895    0.83241    0.55334    1.000
    Si4120   Si       0.48968    0.80043    0.58675    1.000
    Si4121   Si       0.58674    0.83032    0.60090    1.000
    N4122    N        0.51978    0.77393    0.51583    1.000
    Si4123   Si       0.72019    0.82508    0.52905    1.000
    N4124    N        0.64842    0.79895    0.54867    1.000
    Si4125   Si       0.65601    0.81250    0.50807    1.000
    Si4126   Si       0.71559    0.82451    0.59291    1.000
    N4127    N        0.73330    0.79817    0.56061    1.000
    N4128    N        0.69764    0.80039    0.50130    1.000
    N4129    N        0.71516    0.78495    0.61743    1.000
    Si4130   Si       0.61465    0.77282    0.55702    1.000
    Si4131   Si       0.57863    0.82079    0.67658    1.000
    N4132    N        0.53999    0.81047    0.65485    1.000
    N4133    N        0.59597    0.79943    0.71189    1.000
    N4134    N        0.65519    0.83081    0.72792    1.000
    Si4135   Si       0.68907    0.80583    0.64479    1.000
    N4136    N        0.66991    0.77858    0.67445    1.000
    N4137    N        0.70686    0.82780    0.67904    1.000
    N4138    N        0.71115    0.78484    0.73597    1.000
    Si4139   Si       0.68411    0.80319    0.70823    1.000
    Si4140   Si       0.62511    0.80511    0.74380    1.000
    N4141    N        0.54594    0.80012    0.81315    1.000
    Si4142   Si       0.53545    0.81386    0.77361    1.000
    Si4143   Si       0.53317    0.81851    0.85272    1.000
    N4144    N        0.49136    0.82230    0.78002    1.000
    N4145    N        0.54084    0.77867    0.74662    1.000
    N4146    N        0.61260    0.82002    0.78236    1.000
    Si4147   Si       0.71390    0.82845    0.82438    1.000
    N4148    N        0.62981    0.78888    0.85158    1.000
    Si4149   Si       0.63954    0.81221    0.81619    1.000
    N4150    N        0.68149    0.80602    0.80697    1.000
    Si4151   Si       0.68684    0.77524    0.77406    1.000
    N4152    N        0.51471    0.78883    0.87799    1.000
    N4153    N        0.57607    0.78484    0.91416    1.000
    N4154    N        0.49475    0.80860    0.93561    1.000
    Si4155   Si       0.58174    0.82758    0.90812    1.000
    Si4156   Si       0.49084    0.78276    0.96995    1.000
    N4157    N        0.68677    0.81888    0.89046    1.000
    Si4158   Si       0.71750    0.78843    0.88336    1.000
    Si4159   Si       0.64618    0.80464    0.88943    1.000
    N4160    N        0.61499    0.78193    0.97564    1.000
    N4161    N        0.68583    0.79486    0.98662    1.000
    N4162    N        0.51965    0.84941    0.04699    1.000
    N4163    N        0.58661    0.86055    0.06894    1.000
    N4164    N        0.57763    0.86988    0.00571    1.000
    Si4165   Si       0.59159    0.87984    0.10763    1.000
    Si4166   Si       0.51477    0.84213    0.08948    1.000
    N4167    N        0.51385    0.87931    0.10900    1.000
    Si4168   Si       0.55135    0.87771    0.03881    1.000
    Si4169   Si       0.60761    0.85094    0.03038    1.000
    Si4170   Si       0.49194    0.84667    0.01484    1.000
    N4171    N        0.64829    0.85869    0.03963    1.000
    N4172    N        0.71256    0.84616    0.03210    1.000
    N4173    N        0.68067    0.83925    0.10181    1.000
    Si4174   Si       0.67102    0.88001    0.11561    1.000
    Si4175   Si       0.67949    0.83542    0.05880    1.000
    N4176    N        0.57708    0.85301    0.13914    1.000
    Si4177   Si       0.60679    0.87342    0.16519    1.000
    N4178    N        0.61246    0.84686    0.19854    1.000
    N4179    N        0.69084    0.85174    0.16870    1.000
    Si4180   Si       0.62289    0.86388    0.23676    1.000
    N4181    N        0.73238    0.85096    0.22309    1.000
    Si4182   Si       0.68872    0.84564    0.21124    1.000
    N4183    N        0.63037    0.88409    0.12900    1.000
    N4184    N        0.66472    0.87415    0.23417    1.000
    Si4185   Si       0.71448    0.88637    0.17251    1.000
    Si4186   Si       0.51292    0.85018    0.29506    1.000
    N4187    N        0.50129    0.87392    0.32969    1.000
    N4188    N        0.50797    0.88245    0.26530    1.000
    Si4189   Si       0.50849    0.85107    0.36726    1.000
    N4190    N        0.55816    0.84924    0.36748    1.000
    Si4191   Si       0.63615    0.86889    0.33780    1.000
    Si4192   Si       0.70268    0.86937    0.30388    1.000
    N4193    N        0.72620    0.85957    0.33989    1.000
    N4194    N        0.66607    0.89037    0.31483    1.000
    Si4195   Si       0.56028    0.84760    0.48303    1.000
    Si4196   Si       0.49714    0.86196    0.45308    1.000
    N4197    N        0.51594    0.85230    0.41456    1.000
    N4198    N        0.51791    0.83970    0.48336    1.000
    N4199    N        0.57726    0.83358    0.44613    1.000
    Si4200   Si       0.69858    0.85948    0.37339    1.000
    N4201    N        0.69888    0.86922    0.47497    1.000
    N4202    N        0.71457    0.88184    0.40543    1.000
    N4203    N        0.64012    0.86349    0.44775    1.000
    Si4204   Si       0.65941    0.87693    0.48416    1.000
    Si4205   Si       0.72251    0.85680    0.43985    1.000
    N4206    N        0.65602    0.87132    0.37698    1.000
    Si4207   Si       0.53905    0.85570    0.55431    1.000
    N4208    N        0.54784    0.84936    0.59646    1.000
    N4209    N        0.57048    0.84398    0.52754    1.000
    Si4210   Si       0.60740    0.86375    0.54097    1.000
    N4211    N        0.62009    0.85192    0.58142    1.000
    N4212    N        0.70067    0.85188    0.55752    1.000
    N4213    N        0.64409    0.85405    0.51958    1.000
    Si4214   Si       0.66050    0.83756    0.56746    1.000
    Si4215   Si       0.64020    0.85748    0.62598    1.000
    N4216    N        0.67608    0.83414    0.61206    1.000
    N4217    N        0.50026    0.87855    0.71697    1.000
    N4218    N        0.50978    0.87940    0.64978    1.000
    Si4219   Si       0.54175    0.87344    0.72595    1.000
    N4220    N        0.56666    0.85859    0.69378    1.000
    Si4221   Si       0.52111    0.84165    0.63044    1.000
    N4222    N        0.60602    0.83290    0.64133    1.000
    N4223    N        0.69631    0.88840    0.71992    1.000
    Si4224   Si       0.65532    0.87342    0.72629    1.000
    Si4225   Si       0.72225    0.86425    0.69352    1.000
    N4226    N        0.50393    0.85029    0.84787    1.000
    Si4227   Si       0.59476    0.86110    0.77885    1.000
    Si4228   Si       0.59716    0.86434    0.84846    1.000
    N4229    N        0.55511    0.85046    0.76058    1.000
    N4230    N        0.57632    0.87846    0.81306    1.000
    N4231    N        0.56783    0.83665    0.86748    1.000
    Si4232   Si       0.49895    0.88685    0.87114    1.000
    N4233    N        0.63651    0.85211    0.83563    1.000
    N4234    N        0.70519    0.86577    0.84395    1.000
    N4235    N        0.63091    0.88435    0.76201    1.000
    Si4236   Si       0.65490    0.88759    0.85494    1.000
    Si4237   Si       0.57374    0.87979    0.96202    1.000
    N4238    N        0.50899    0.86598    0.97824    1.000
    Si4239   Si       0.51553    0.84770    0.93749    1.000
    N4240    N        0.55792    0.84887    0.93581    1.000
    N4241    N        0.49179    0.87702    0.91313    1.000
    N4242    N        0.67552    0.86018    0.95942    1.000
    Si4243   Si       0.70037    0.83633    0.98715    1.000
    N4244    N        0.67159    0.88682    0.89762    1.000
    N4245    N        0.62387    0.83521    0.90904    1.000
    Si4246   Si       0.64532    0.86895    0.92886    1.000
    Si4247   Si       0.70467    0.85811    0.88801    1.000
    N4248    N        0.52799    0.91325    0.02908    1.000
    N4249    N        0.57195    0.91806    0.11213    1.000
    Si4250   Si       0.52784    0.91976    0.11630    1.000
    Si4251   Si       0.50592    0.94571    0.04688    1.000
    N4252    N        0.51041    0.94684    0.09096    1.000
    N4253    N        0.69546    0.90326    0.00706    1.000
    Si4254   Si       0.70117    0.93220    0.10081    1.000
    N4255    N        0.67655    0.90571    0.07804    1.000
    N4256    N        0.64015    0.92984    0.01405    1.000
    Si4257   Si       0.72715    0.93365    0.01514    1.000
    Si4258   Si       0.66479    0.89900    0.03591    1.000
    Si4259   Si       0.57812    0.93861    0.14940    1.000
    N4260    N        0.58821    0.90926    0.18129    1.000
    Si4261   Si       0.58223    0.92497    0.22126    1.000
    N4262    N        0.54128    0.93730    0.22064    1.000
    N4263    N        0.53433    0.94256    0.15473    1.000
    Si4264   Si       0.69194    0.90506    0.24125    1.000
    N4265    N        0.70763    0.90036    0.13106    1.000
    N4266    N        0.70270    0.91696    0.20150    1.000
    N4267    N        0.67266    0.94328    0.24639    1.000
    N4268    N        0.55135    0.92950    0.29274    1.000
    Si4269   Si       0.59302    0.91190    0.29253    1.000
    Si4270   Si       0.52496    0.92182    0.25762    1.000
    N4271    N        0.54860    0.92394    0.36368    1.000
    N4272    N        0.59614    0.89646    0.25048    1.000
    Si4273   Si       0.57491    0.88887    0.36689    1.000
    N4274    N        0.59995    0.89092    0.33054    1.000
    Si4275   Si       0.65792    0.93512    0.31947    1.000
    N4276    N        0.62373    0.94391    0.29287    1.000
    N4277    N        0.71947    0.89175    0.27208    1.000
    N4278    N        0.54183    0.93131    0.43693    1.000
    N4279    N        0.59455    0.89339    0.40685    1.000
    Si4280   Si       0.57974    0.91094    0.44483    1.000
    Si4281   Si       0.51271    0.93695    0.46939    1.000
    N4282    N        0.56725    0.88969    0.47977    1.000
    N4283    N        0.60441    0.94363    0.45495    1.000
    Si4284   Si       0.64869    0.94552    0.46098    1.000
    Si4285   Si       0.73808    0.93792    0.49076    1.000
    N4286    N        0.65075    0.91888    0.49448    1.000
    Si4287   Si       0.63628    0.88752    0.41110    1.000
    Si4288   Si       0.70100    0.92249    0.41629    1.000
    N4289    N        0.65869    0.92259    0.42359    1.000
    N4290    N        0.71883    0.94119    0.45213    1.000
    Si4291   Si       0.50503    0.92222    0.56841    1.000
    Si4292   Si       0.55807    0.91165    0.51529    1.000
    N4293    N        0.59711    0.90564    0.53686    1.000
    N4294    N        0.52490    0.93440    0.60309    1.000
    N4295    N        0.52922    0.89596    0.54470    1.000
    N4296    N        0.53949    0.94903    0.50218    1.000
    N4297    N        0.66049    0.91249    0.56198    1.000
    Si4298   Si       0.63313    0.92891    0.53125    1.000
    Si4299   Si       0.65102    0.93147    0.59882    1.000
    N4300    N        0.72351    0.91259    0.52398    1.000
    N4301    N        0.72115    0.90929    0.59629    1.000
    Si4302   Si       0.70044    0.89640    0.55857    1.000
    N4303    N        0.55981    0.91592    0.71782    1.000
    N4304    N        0.57386    0.91442    0.65176    1.000
    Si4305   Si       0.53123    0.91575    0.64255    1.000
    Si4306   Si       0.58693    0.89710    0.68872    1.000
    N4307    N        0.50468    0.94623    0.74049    1.000
    N4308    N        0.51749    0.94907    0.66864    1.000
    N4309    N        0.73475    0.89110    0.66427    1.000
    N4310    N        0.65010    0.89913    0.62960    1.000
    Si4311   Si       0.72435    0.93148    0.67759    1.000
    N4312    N        0.68182    0.94241    0.68298    1.000
    Si4313   Si       0.64794    0.92009    0.66803    1.000
    N4314    N        0.62877    0.89303    0.69412    1.000
    N4315    N        0.53020    0.91430    0.85834    1.000
    Si4316   Si       0.54118    0.90281    0.81645    1.000
    N4317    N        0.50065    0.89355    0.79886    1.000
    N4318    N        0.55016    0.94054    0.79766    1.000
    Si4319   Si       0.64857    0.91780    0.78215    1.000
    N4320    N        0.66874    0.91293    0.82190    1.000
    Si4321   Si       0.70981    0.90120    0.81967    1.000
    N4322    N        0.72661    0.89836    0.77829    1.000
    N4323    N        0.73319    0.93356    0.83586    1.000
    N4324    N        0.67699    0.94243    0.75902    1.000
    Si4325   Si       0.71217    0.92225    0.74425    1.000
    N4326    N        0.61309    0.89849    0.86955    1.000
    N4327    N        0.55152    0.91606    0.96522    1.000
    Si4328   Si       0.51490    0.90797    0.98676    1.000
    Si4329   Si       0.60290    0.93612    0.88387    1.000
    N4330    N        0.56862    0.94416    0.90810    1.000
    Si4331   Si       0.67518    0.93018    0.90895    1.000
    N4332    N        0.73950    0.90489    0.95268    1.000
    N4333    N        0.66828    0.92758    0.95047    1.000
    N4334    N        0.61417    0.89160    0.95136    1.000
    Si4335   Si       0.63013    0.92844    0.97140    1.000
    Si4336   Si       0.69645    0.89771    0.96536    1.000
    N4337    N        0.71474    0.94625    0.90455    1.000
    N4338    N        0.64323    0.95144    0.89255    1.000
    N4339    N        0.51860    0.98794    0.03451    1.000
    N4340    N        0.58922    0.99870    0.02271    1.000
    N4341    N        0.59419    0.99572    0.10067    1.000
    Si4342   Si       0.60744    0.00472    0.06016    1.000
    N4343    N        0.69928    0.95901    0.04134    1.000
    N4344    N        0.64439    0.98420    0.06743    1.000
    Si4345   Si       0.65915    0.96623    0.03109    1.000
    Si4346   Si       0.72468    0.99344    0.04875    1.000
    Si4347   Si       0.63556    0.97446    0.10982    1.000
    N4348    N        0.65348    0.00021    0.00416    1.000
    Si4349   Si       0.51893    0.96232    0.19049    1.000
    N4350    N        0.51783    0.00521    0.20150    1.000
    N4351    N        0.60953    0.96180    0.22197    1.000
    N4352    N        0.61378    0.96166    0.14764    1.000
    Si4353   Si       0.69112    0.95865    0.21065    1.000
    N4354    N        0.66634    0.98371    0.18527    1.000
    N4355    N        0.71919    0.98889    0.22216    1.000
    N4356    N        0.67664    0.95982    0.12268    1.000
    Si4357   Si       0.62202    0.98506    0.18547    1.000
    Si4358   Si       0.68147    0.99850    0.14768    1.000
    N4359    N        0.56402    0.98657    0.32954    1.000
    N4360    N        0.50080    0.96640    0.32485    1.000
    N4361    N        0.52183    0.99979    0.26957    1.000
    Si4362   Si       0.54173    0.95018    0.32927    1.000
    Si4363   Si       0.48861    0.97761    0.28631    1.000
    Si4364   Si       0.71164    0.97501    0.35120    1.000
    Si4365   Si       0.63696    0.96540    0.25510    1.000
    N4366    N        0.64035    0.95571    0.35395    1.000
    Si4367   Si       0.64520    0.99363    0.37189    1.000
    N4368    N        0.69788    0.94961    0.32108    1.000
    N4369    N        0.50418    0.97147    0.39631    1.000
    Si4370   Si       0.60025    0.98220    0.43512    1.000
    N4371    N        0.57368    0.97792    0.40181    1.000
    Si4372   Si       0.49236    0.99604    0.42990    1.000
    Si4373   Si       0.54152    0.94973    0.39966    1.000
    N4374    N        0.63737    0.99373    0.41393    1.000
    N4375    N        0.71698    0.95532    0.39032    1.000
    Si4376   Si       0.73121    0.97584    0.42723    1.000
    N4377    N        0.66084    0.98589    0.47354    1.000
    Si4378   Si       0.53392    0.97909    0.53338    1.000
    Si4379   Si       0.53755    0.97680    0.60448    1.000
    N4380    N        0.55978    0.98258    0.56655    1.000
    N4381    N        0.49795    0.96166    0.55117    1.000
    Si4382   Si       0.60309    0.98275    0.57224    1.000
    N4383    N        0.61210    0.95077    0.60004    1.000
    N4384    N        0.62419    0.97139    0.53579    1.000
    N4385    N        0.68226    0.96347    0.60571    1.000
    Si4386   Si       0.65120    0.99639    0.51462    1.000
    N4387    N        0.68614    0.99722    0.54185    1.000
    Si4388   Si       0.72873    0.99270    0.54078    1.000
    Si4389   Si       0.67369    0.00262    0.58305    1.000
    Si4390   Si       0.72462    0.95208    0.60785    1.000
    N4391    N        0.50209    0.99865    0.61891    1.000
    Si4392   Si       0.59250    0.00594    0.71874    1.000
    Si4393   Si       0.53383    0.95056    0.70870    1.000
    N4394    N        0.55220    0.98943    0.70989    1.000
    N4395    N        0.56760    0.98764    0.63330    1.000
    Si4396   Si       0.59226    0.95244    0.63891    1.000
    Si4397   Si       0.48781    0.97864    0.65671    1.000
    Si4398   Si       0.65454    0.97706    0.69135    1.000
    N4399    N        0.63128    0.98574    0.72708    1.000
    N4400    N        0.62446    0.95621    0.66772    1.000
    Si4401   Si       0.58585    0.96131    0.80574    1.000
    Si4402   Si       0.51411    0.96150    0.78368    1.000
    N4403    N        0.58245    0.95631    0.85056    1.000
    Si4404   Si       0.58149    0.99906    0.85247    1.000
    N4405    N        0.54056    0.00017    0.86289    1.000
    N4406    N        0.52868    0.00319    0.77853    1.000
    N4407    N        0.58942    0.00347    0.80905    1.000
    Si4408   Si       0.64935    0.97734    0.76604    1.000
    N4409    N        0.68553    0.98483    0.85011    1.000
    Si4410   Si       0.71980    0.96268    0.86510    1.000
    N4411    N        0.62180    0.94993    0.78841    1.000
    Si4412   Si       0.54207    0.95552    0.87281    1.000
    Si4413   Si       0.56365    0.95644    0.94831    1.000
    N4414    N        0.52797    0.97898    0.94926    1.000
    N4415    N        0.60443    0.96274    0.96368    1.000
    N4416    N        0.49932    0.96329    0.89041    1.000
    Si4417   Si       0.49085    0.95865    0.93587    1.000
    Si4418   Si       0.65307    0.99166    0.88022    1.000
    Si4419   Si       0.61145    0.99979    0.98616    1.000
    N4420    N        0.78066    0.03647    0.05497    1.000
    Si4421   Si       0.80271    0.04390    0.09055    1.000
    Si4422   Si       0.78052    0.06115    0.01773    1.000
    N4423    N        0.94964    0.04411    0.04016    1.000
    Si4424   Si       0.87649    0.03919    0.09184    1.000
    Si4425   Si       0.90636    0.04890    0.03209    1.000
    N4426    N        0.88275    0.02026    0.05286    1.000
    Si4427   Si       0.94749    0.04673    0.11407    1.000
    N4428    N        0.77465    0.04688    0.12565    1.000
    Si4429   Si       0.79524    0.05200    0.16305    1.000
    N4430    N        0.83096    0.01455    0.23918    1.000
    N4431    N        0.81987    0.01625    0.16508    1.000
    N4432    N        0.76348    0.06492    0.18938    1.000
    N4433    N        0.98493    0.05592    0.23500    1.000
    Si4434   Si       0.94535    0.01205    0.18083    1.000
    N4435    N        0.92233    0.02280    0.21572    1.000
    N4436    N        0.94503    0.04785    0.15680    1.000
    Si4437   Si       0.90588    0.06268    0.22422    1.000
    N4438    N        0.77752    0.03456    0.30924    1.000
    N4439    N        0.82004    0.04478    0.35624    1.000
    N4440    N        0.84838    0.05061    0.28842    1.000
    Si4441   Si       0.81591    0.05750    0.31658    1.000
    Si4442   Si       0.75273    0.03107    0.34483    1.000
    Si4443   Si       0.74391    0.05123    0.28618    1.000
    N4444    N        0.75745    0.03705    0.24706    1.000
    Si4445   Si       0.83687    0.05693    0.24680    1.000
    Si4446   Si       0.88795    0.06212    0.30107    1.000
    N4447    N        0.91463    0.04016    0.32939    1.000
    Si4448   Si       0.95477    0.05216    0.33773    1.000
    N4449    N        0.98343    0.01729    0.33511    1.000
    N4450    N        0.78836    0.03425    0.49296    1.000
    Si4451   Si       0.85725    0.05966    0.42607    1.000
    N4452    N        0.75924    0.03602    0.38626    1.000
    N4453    N        0.81705    0.04470    0.42768    1.000
    Si4454   Si       0.80172    0.02681    0.39017    1.000
    Si4455   Si       0.79413    0.06080    0.45878    1.000
    N4456    N        0.88106    0.05487    0.46002    1.000
    Si4457   Si       0.96635    0.02411    0.41922    1.000
    N4458    N        0.88336    0.04469    0.39408    1.000
    N4459    N        0.94829    0.05926    0.43301    1.000
    N4460    N        0.93971    0.00709    0.38946    1.000
    Si4461   Si       0.78394    0.04145    0.53500    1.000
    N4462    N        0.76207    0.03210    0.61395    1.000
    Si4463   Si       0.84751    0.01258    0.56026    1.000
    N4464    N        0.80416    0.01276    0.56189    1.000
    N4465    N        0.74280    0.03370    0.54461    1.000
    N4466    N        0.85882    0.01179    0.51839    1.000
    N4467    N        0.86078    0.04829    0.58108    1.000
    N4468    N        0.91878    0.05688    0.51193    1.000
    Si4469   Si       0.94850    0.03397    0.53210    1.000
    N4470    N        0.96071    0.03873    0.57426    1.000
    Si4471   Si       0.87670    0.04797    0.50383    1.000
    N4472    N        0.98000    0.03949    0.50474    1.000
    N4473    N        0.85132    0.01936    0.64452    1.000
    Si4474   Si       0.82358    0.01967    0.67903    1.000
    N4475    N        0.84958    0.02744    0.71072    1.000
    N4476    N        0.79784    0.05303    0.66929    1.000
    Si4477   Si       0.75824    0.04078    0.65492    1.000
    N4478    N        0.74411    0.01067    0.68276    1.000
    Si4479   Si       0.95274    0.06562    0.71204    1.000
    N4480    N        0.96764    0.04421    0.67482    1.000
    Si4481   Si       0.93385    0.02578    0.64970    1.000
    N4482    N        0.91223    0.05541    0.62717    1.000
    N4483    N        0.91001    0.06062    0.71505    1.000
    Si4484   Si       0.89233    0.02136    0.71206    1.000
    Si4485   Si       0.86791    0.05472    0.62514    1.000
    N4486    N        0.79748    0.03869    0.84238    1.000
    N4487    N        0.82294    0.02054    0.77960    1.000
    Si4488   Si       0.80698    0.05375    0.80285    1.000
    Si4489   Si       0.83410    0.02287    0.86517    1.000
    Si4490   Si       0.74392    0.03515    0.76668    1.000
    N4491    N        0.77211    0.06621    0.77237    1.000
    Si4492   Si       0.76556    0.01026    0.83425    1.000
    Si4493   Si       0.83948    0.04741    0.74763    1.000
    Si4494   Si       0.86352    0.00699    0.79340    1.000
    N4495    N        0.86707    0.01974    0.83478    1.000
    N4496    N        0.96486    0.04571    0.75036    1.000
    Si4497   Si       0.90976    0.02749    0.84174    1.000
    N4498    N        0.87731    0.04256    0.77015    1.000
    N4499    N        0.93263    0.01676    0.80761    1.000
    N4500    N        0.91335    0.06195    0.86984    1.000
    Si4501   Si       0.94291    0.01044    0.76738    1.000
    N4502    N        0.77725    0.04418    0.90921    1.000
    N4503    N        0.85509    0.04743    0.89369    1.000
    N4504    N        0.77515    0.03756    0.98182    1.000
    Si4505   Si       0.74312    0.00603    0.98039    1.000
    Si4506   Si       0.75518    0.00472    0.91249    1.000
    Si4507   Si       0.90948    0.01109    0.96689    1.000
    N4508    N        0.90128    0.04586    0.98976    1.000
    Si4509   Si       0.89550    0.04328    0.90602    1.000
    N4510    N        0.98527    0.05838    0.89008    1.000
    N4511    N        0.82437    0.07543    0.01979    1.000
    Si4512   Si       0.84924    0.08991    0.05127    1.000
    N4513    N        0.75001    0.09068    0.02898    1.000
    N4514    N        0.83816    0.06973    0.08857    1.000
    N4515    N        0.89157    0.08776    0.04329    1.000
    Si4516   Si       0.91637    0.10850    0.10946    1.000
    Si4517   Si       0.98143    0.10870    0.07801    1.000
    Si4518   Si       0.91995    0.11963    0.03519    1.000
    N4519    N        0.97732    0.07534    0.10822    1.000
    N4520    N        0.94105    0.12140    0.07407    1.000
    N4521    N        0.94494    0.09851    0.00056    1.000
    Si4522   Si       0.97424    0.07030    0.01720    1.000
    N4523    N        0.87606    0.12091    0.11285    1.000
    N4524    N        0.90833    0.06436    0.10506    1.000
    N4525    N        0.73980    0.11540    0.22364    1.000
    Si4526   Si       0.84192    0.09817    0.12347    1.000
    N4527    N        0.80778    0.08559    0.23452    1.000
    N4528    N        0.82475    0.08586    0.16194    1.000
    Si4529   Si       0.83612    0.10015    0.20273    1.000
    Si4530   Si       0.76525    0.07956    0.23262    1.000
    N4531    N        0.93704    0.12261    0.14542    1.000
    Si4532   Si       0.95247    0.08859    0.16877    1.000
    N4533    N        0.92960    0.09269    0.20462    1.000
    N4534    N        0.86586    0.07244    0.21712    1.000
    Si4535   Si       0.93087    0.12655    0.23111    1.000
    N4536    N        0.80930    0.10025    0.31835    1.000
    N4537    N        0.75393    0.09259    0.27974    1.000
    Si4538   Si       0.77304    0.12198    0.30509    1.000
    Si4539   Si       0.84260    0.12323    0.33308    1.000
    N4540    N        0.87422    0.09324    0.33399    1.000
    N4541    N        0.96972    0.07796    0.30447    1.000
    Si4542   Si       0.95793    0.07348    0.26365    1.000
    Si4543   Si       0.97981    0.12146    0.30055    1.000
    N4544    N        0.91431    0.06575    0.26665    1.000
    N4545    N        0.96469    0.11888    0.25776    1.000
    N4546    N        0.85325    0.09711    0.40558    1.000
    N4547    N        0.81840    0.09608    0.46369    1.000
    Si4548   Si       0.82437    0.11880    0.42635    1.000
    N4549    N        0.75357    0.07092    0.44724    1.000
    Si4550   Si       0.92069    0.07091    0.46561    1.000
    Si4551   Si       0.95755    0.09140    0.40453    1.000
    Si4552   Si       0.88221    0.08355    0.37514    1.000
    N4553    N        0.92200    0.11232    0.47776    1.000
    N4554    N        0.91997    0.10339    0.38227    1.000
    N4555    N        0.97451    0.07082    0.37105    1.000
    Si4556   Si       0.76178    0.11403    0.54929    1.000
    N4557    N        0.78944    0.08534    0.53582    1.000
    Si4558   Si       0.82126    0.10032    0.50819    1.000
    N4559    N        0.85924    0.08444    0.52093    1.000
    Si4560   Si       0.87209    0.08624    0.56230    1.000
    Si4561   Si       0.92777    0.10031    0.52407    1.000
    N4562    N        0.91609    0.08860    0.56743    1.000
    N4563    N        0.97158    0.10427    0.52771    1.000
    Si4564   Si       0.94081    0.07147    0.59672    1.000
    N4565    N        0.96871    0.09598    0.61800    1.000
    Si4566   Si       0.80640    0.09353    0.65758    1.000
    N4567    N        0.84456    0.09136    0.63744    1.000
    N4568    N        0.77126    0.10926    0.63691    1.000
    N4569    N        0.80401    0.12082    0.69348    1.000
    N4570    N        0.84728    0.08967    0.73988    1.000
    Si4571   Si       0.82816    0.12573    0.72815    1.000
    Si4572   Si       0.88908    0.07962    0.74798    1.000
    Si4573   Si       0.98048    0.08545    0.65763    1.000
    N4574    N        0.95748    0.10489    0.68923    1.000
    N4575    N        0.80947    0.09509    0.81096    1.000
    Si4576   Si       0.78006    0.10905    0.77965    1.000
    N4577    N        0.74315    0.08989    0.85633    1.000
    Si4578   Si       0.81712    0.12122    0.84353    1.000
    Si4579   Si       0.77809    0.06875    0.87066    1.000
    N4580    N        0.96655    0.09383    0.81202    1.000
    N4581    N        0.91176    0.11356    0.75696    1.000
    Si4582   Si       0.93315    0.11719    0.79539    1.000
    N4583    N        0.90812    0.12461    0.83135    1.000
    Si4584   Si       0.90818    0.10525    0.87188    1.000
    N4585    N        0.81173    0.09489    0.87812    1.000
    N4586    N        0.82201    0.08299    0.94556    1.000
    N4587    N        0.75613    0.09859    0.95043    1.000
    Si4588   Si       0.83443    0.09774    0.98391    1.000
    Si4589   Si       0.84230    0.08733    0.90809    1.000
    Si4590   Si       0.78206    0.06308    0.94696    1.000
    N4591    N        0.87592    0.10778    0.97814    1.000
    N4592    N        0.94503    0.11391    0.89336    1.000
    Si4593   Si       0.91118    0.08456    0.97348    1.000
    N4594    N        0.87492    0.11708    0.89664    1.000
    Si4595   Si       0.95681    0.07929    0.91533    1.000
    N4596    N        0.98479    0.10180    0.94334    1.000
    Si4597   Si       0.96293    0.12797    0.97433    1.000
    N4598    N        0.92125    0.06785    0.93435    1.000
    N4599    N        0.77964    0.16076    0.04753    1.000
    Si4600   Si       0.81599    0.15525    0.02562    1.000
    Si4601   Si       0.85178    0.15059    0.09428    1.000
    N4602    N        0.84183    0.13351    0.05323    1.000
    Si4603   Si       0.74793    0.13347    0.03370    1.000
    N4604    N        0.74052    0.14246    0.11498    1.000
    N4605    N        0.81578    0.12977    0.11193    1.000
    N4606    N        0.90857    0.15758    0.01693    1.000
    Si4607   Si       0.78179    0.15079    0.12416    1.000
    N4608    N        0.83852    0.14237    0.20776    1.000
    N4609    N        0.77989    0.14359    0.16574    1.000
    Si4610   Si       0.80486    0.16520    0.19337    1.000
    Si4611   Si       0.98092    0.15796    0.24056    1.000
    N4612    N        0.95230    0.15670    0.20974    1.000
    Si4613   Si       0.93372    0.15992    0.16966    1.000
    N4614    N        0.89151    0.17923    0.17947    1.000
    Si4615   Si       0.87278    0.16838    0.21738    1.000
    N4616    N        0.78593    0.15992    0.28520    1.000
    N4617    N        0.85386    0.15438    0.30287    1.000
    N4618    N        0.81385    0.15562    0.34979    1.000
    Si4619   Si       0.81551    0.17818    0.31098    1.000
    Si4620   Si       0.77832    0.15017    0.37163    1.000
    N4621    N        0.75216    0.12958    0.34376    1.000
    N4622    N        0.95460    0.14228    0.33071    1.000
    Si4623   Si       0.88434    0.17274    0.27823    1.000
    N4624    N        0.89493    0.14479    0.24517    1.000
    Si4625   Si       0.95269    0.18328    0.31382    1.000
    N4626    N        0.84589    0.15677    0.43092    1.000
    Si4627   Si       0.83380    0.16745    0.47078    1.000
    Si4628   Si       0.76262    0.15741    0.43143    1.000
    N4629    N        0.78520    0.17477    0.46406    1.000
    N4630    N        0.75492    0.18070    0.39501    1.000
    N4631    N        0.78599    0.12852    0.40950    1.000
    Si4632   Si       0.94118    0.13897    0.37249    1.000
    N4633    N        0.93939    0.17651    0.46023    1.000
    N4634    N        0.91451    0.16942    0.39231    1.000
    Si4635   Si       0.87244    0.17834    0.40517    1.000
    N4636    N        0.87761    0.17662    0.48410    1.000
    Si4637   Si       0.91393    0.15396    0.48847    1.000
    N4638    N        0.97263    0.13135    0.40221    1.000
    N4639    N        0.82829    0.14365    0.51119    1.000
    N4640    N        0.78586    0.14368    0.57002    1.000
    Si4641   Si       0.80705    0.17118    0.54610    1.000
    Si4642   Si       0.77927    0.14603    0.61243    1.000
    N4643    N        0.74523    0.17212    0.61517    1.000
    Si4644   Si       0.85275    0.13075    0.61964    1.000
    Si4645   Si       0.86184    0.14642    0.53928    1.000
    Si4646   Si       0.75419    0.16835    0.49758    1.000
    N4647    N        0.85628    0.12395    0.57674    1.000
    N4648    N        0.91305    0.18515    0.58811    1.000
    N4649    N        0.97179    0.15313    0.56955    1.000
    Si4650   Si       0.93382    0.16359    0.55621    1.000
    N4651    N        0.90527    0.13932    0.53203    1.000
    Si4652   Si       0.97622    0.13875    0.60988    1.000
    N4653    N        0.81899    0.15690    0.62625    1.000
    Si4654   Si       0.77162    0.14841    0.68741    1.000
    N4655    N        0.76853    0.17819    0.71794    1.000
    N4656    N        0.85870    0.15697    0.72077    1.000
    N4657    N        0.80245    0.13974    0.75990    1.000
    Si4658   Si       0.91550    0.17927    0.63167    1.000
    N4659    N        0.87929    0.15751    0.63918    1.000
    Si4660   Si       0.95463    0.14912    0.68456    1.000
    N4661    N        0.92433    0.17148    0.70790    1.000
    Si4662   Si       0.89997    0.15425    0.74050    1.000
    N4663    N        0.94996    0.15479    0.63982    1.000
    N4664    N        0.84682    0.15196    0.83712    1.000
    N4665    N        0.78386    0.14972    0.85080    1.000
    Si4666   Si       0.78800    0.17953    0.75824    1.000
    Si4667   Si       0.74391    0.13393    0.86213    1.000
    Si4668   Si       0.81532    0.18153    0.85844    1.000
    Si4669   Si       0.88501    0.16065    0.82248    1.000
    N4670    N        0.96328    0.14885    0.78536    1.000
    N4671    N        0.89508    0.17432    0.77806    1.000
    Si4672   Si       0.77139    0.13757    0.96437    1.000
    N4673    N        0.77283    0.16696    0.93253    1.000
    N4674    N        0.80776    0.13311    0.98969    1.000
    N4675    N        0.83689    0.17891    0.89730    1.000
    N4676    N        0.74040    0.14901    0.99348    1.000
    N4677    N        0.92712    0.14026    0.95329    1.000
    N4678    N        0.98668    0.16284    0.98634    1.000
    N4679    N        0.86774    0.17176    0.95395    1.000
    Si4680   Si       0.94233    0.15212    0.91550    1.000
    N4681    N        0.98519    0.15912    0.91746    1.000
    Si4682   Si       0.89317    0.14797    0.97714    1.000
    Si4683   Si       0.87370    0.16104    0.91249    1.000
    N4684    N        0.91119    0.17779    0.89909    1.000
    N4685    N        0.81008    0.22632    0.05715    1.000
    Si4686   Si       0.78044    0.20009    0.06975    1.000
    N4687    N        0.79045    0.19107    0.11190    1.000
    N4688    N        0.83788    0.18998    0.01278    1.000
    Si4689   Si       0.84853    0.22529    0.03785    1.000
    N4690    N        0.86700    0.18822    0.10699    1.000
    Si4691   Si       0.96494    0.21547    0.08536    1.000
    Si4692   Si       0.88626    0.22364    0.09287    1.000
    N4693    N        0.89062    0.21772    0.04817    1.000
    N4694    N        0.92733    0.22799    0.10261    1.000
    Si4695   Si       0.92419    0.19785    0.02627    1.000
    N4696    N        0.95992    0.19398    0.04931    1.000
    Si4697   Si       0.79397    0.21929    0.14385    1.000
    N4698    N        0.75567    0.23097    0.16173    1.000
    Si4699   Si       0.74601    0.20501    0.19408    1.000
    N4700    N        0.82201    0.19654    0.16863    1.000
    N4701    N        0.77555    0.18582    0.21753    1.000
    Si4702   Si       0.86309    0.19561    0.15050    1.000
    N4703    N        0.95283    0.19419    0.15249    1.000
    Si4704   Si       0.92511    0.22594    0.14596    1.000
    N4705    N        0.88127    0.23496    0.14655    1.000
    N4706    N        0.81490    0.22223    0.31563    1.000
    Si4707   Si       0.82148    0.22715    0.35973    1.000
    N4708    N        0.76649    0.22808    0.26936    1.000
    Si4709   Si       0.76366    0.18574    0.25929    1.000
    Si4710   Si       0.86527    0.24074    0.25538    1.000
    N4711    N        0.86274    0.19767    0.24847    1.000
    N4712    N        0.97458    0.20760    0.34534    1.000
    N4713    N        0.91280    0.19625    0.30122    1.000
    Si4714   Si       0.91016    0.23864    0.31062    1.000
    N4715    N        0.91366    0.23910    0.35390    1.000
    Si4716   Si       0.95511    0.23926    0.36670    1.000
    N4717    N        0.97848    0.18012    0.27854    1.000
    N4718    N        0.85478    0.20525    0.37660    1.000
    N4719    N        0.83154    0.21531    0.46953    1.000
    N4720    N        0.75470    0.23524    0.44295    1.000
    Si4721   Si       0.78949    0.21971    0.47225    1.000
    Si4722   Si       0.75202    0.22448    0.40241    1.000
    N4723    N        0.90277    0.24171    0.48860    1.000
    Si4724   Si       0.88118    0.24239    0.38527    1.000
    Si4725   Si       0.97013    0.18613    0.48992    1.000
    N4726    N        0.95642    0.22827    0.40877    1.000
    Si4727   Si       0.87564    0.21604    0.46613    1.000
    N4728    N        0.89075    0.21644    0.42401    1.000
    Si4729   Si       0.92965    0.19665    0.42286    1.000
    Si4730   Si       0.76420    0.23298    0.53288    1.000
    N4731    N        0.77905    0.19523    0.52299    1.000
    N4732    N        0.85806    0.21566    0.61370    1.000
    N4733    N        0.84536    0.18405    0.55616    1.000
    Si4734   Si       0.87763    0.20532    0.57636    1.000
    Si4735   Si       0.92083    0.22783    0.52525    1.000
    N4736    N        0.94048    0.18954    0.52221    1.000
    N4737    N        0.89068    0.23901    0.55330    1.000
    N4738    N        0.75565    0.21901    0.66954    1.000
    N4739    N        0.82413    0.20507    0.67769    1.000
    Si4740   Si       0.84470    0.19756    0.71797    1.000
    Si4741   Si       0.79393    0.23735    0.66928    1.000
    N4742    N        0.75211    0.24041    0.73738    1.000
    Si4743   Si       0.84525    0.18579    0.64535    1.000
    N4744    N        0.92016    0.21563    0.65319    1.000
    N4745    N        0.94905    0.23891    0.71147    1.000
    Si4746   Si       0.91706    0.21339    0.69692    1.000
    N4747    N        0.88109    0.22280    0.71794    1.000
    N4748    N        0.82391    0.21358    0.83081    1.000
    Si4749   Si       0.82613    0.22884    0.79169    1.000
    Si4750   Si       0.75459    0.23922    0.78156    1.000
    N4751    N        0.75800    0.19424    0.78631    1.000
    N4752    N        0.82274    0.20522    0.75431    1.000
    Si4753   Si       0.90595    0.21341    0.79419    1.000
    N4754    N        0.90291    0.19903    0.83626    1.000
    N4755    N        0.87040    0.23973    0.79267    1.000
    N4756    N        0.93906    0.24250    0.80055    1.000
    Si4757   Si       0.96871    0.24014    0.83319    1.000
    Si4758   Si       0.91305    0.21411    0.87631    1.000
    N4759    N        0.78698    0.21572    0.88222    1.000
    N4760    N        0.81201    0.21713    0.95395    1.000
    Si4761   Si       0.80348    0.19683    0.91713    1.000
    Si4762   Si       0.84745    0.20407    0.97321    1.000
    Si4763   Si       0.75179    0.24042    0.89262    1.000
    N4764    N        0.95444    0.23034    0.87389    1.000
    N4765    N        0.87171    0.23913    0.97474    1.000
    N4766    N        0.98407    0.22007    0.94257    1.000
    Si4767   Si       0.96512    0.24504    0.91263    1.000
    N4768    N        0.93911    0.22838    0.99550    1.000
    Si4769   Si       0.80026    0.26098    0.03007    1.000
    N4770    N        0.84372    0.26618    0.02304    1.000
    N4771    N        0.79032    0.29296    0.05695    1.000
    Si4772   Si       0.75188    0.29803    0.07852    1.000
    N4773    N        0.76777    0.24413    0.00617    1.000
    N4774    N        0.86222    0.25976    0.09020    1.000
    Si4775   Si       0.86936    0.28763    0.05633    1.000
    Si4776   Si       0.95931    0.28618    0.07350    1.000
    N4777    N        0.91363    0.29673    0.06176    1.000
    N4778    N        0.98495    0.25293    0.08350    1.000
    N4779    N        0.97171    0.30237    0.03537    1.000
    N4780    N        0.75704    0.28901    0.12219    1.000
    N4781    N        0.78480    0.29011    0.19243    1.000
    N4782    N        0.81518    0.25646    0.13643    1.000
    Si4783   Si       0.82259    0.28475    0.21081    1.000
    Si4784   Si       0.79196    0.28985    0.15072    1.000
    N4785    N        0.85564    0.28722    0.17957    1.000
    Si4786   Si       0.85618    0.27102    0.13516    1.000
    Si4787   Si       0.97253    0.27035    0.18514    1.000
    Si4788   Si       0.89869    0.27576    0.19145    1.000
    N4789    N        0.97202    0.28439    0.22646    1.000
    N4790    N        0.89230    0.25600    0.22658    1.000
    N4791    N        0.93481    0.25971    0.17106    1.000
    N4792    N        0.81076    0.28600    0.29929    1.000
    Si4793   Si       0.84972    0.28150    0.32172    1.000
    N4794    N        0.84623    0.26392    0.36061    1.000
    Si4795   Si       0.80277    0.24743    0.28147    1.000
    N4796    N        0.82603    0.25684    0.24560    1.000
    Si4797   Si       0.97254    0.27263    0.26729    1.000
    N4798    N        0.94352    0.26480    0.29914    1.000
    N4799    N        0.97223    0.27961    0.35979    1.000
    N4800    N        0.87410    0.25503    0.29510    1.000
    Si4801   Si       0.75344    0.27387    0.46446    1.000
    Si4802   Si       0.78758    0.28327    0.39458    1.000
    N4803    N        0.76826    0.30115    0.43246    1.000
    N4804    N        0.78755    0.23922    0.38435    1.000
    N4805    N        0.77875    0.25551    0.49631    1.000
    Si4806   Si       0.97402    0.25072    0.44314    1.000
    N4807    N        0.88876    0.28412    0.40158    1.000
    Si4808   Si       0.91491    0.28368    0.48891    1.000
    N4809    N        0.95075    0.28192    0.46449    1.000
    Si4810   Si       0.77772    0.26585    0.59948    1.000
    N4811    N        0.84754    0.28840    0.58445    1.000
    N4812    N        0.84206    0.28769    0.51532    1.000
    Si4813   Si       0.80111    0.28373    0.52605    1.000
    N4814    N        0.78924    0.25716    0.55811    1.000
    Si4815   Si       0.84709    0.25798    0.61776    1.000
    Si4816   Si       0.86955    0.27928    0.54697    1.000
    Si4817   Si       0.93910    0.28740    0.55623    1.000
    N4818    N        0.92830    0.28186    0.59746    1.000
    N4819    N        0.95468    0.25282    0.53401    1.000
    N4820    N        0.90654    0.29951    0.52852    1.000
    N4821    N        0.80590    0.25103    0.63046    1.000
    N4822    N        0.79580    0.27248    0.69390    1.000
    Si4823   Si       0.75957    0.27707    0.71829    1.000
    Si4824   Si       0.82651    0.29628    0.71202    1.000
    N4825    N        0.94902    0.27899    0.65397    1.000
    Si4826   Si       0.91732    0.25367    0.63182    1.000
    Si4827   Si       0.95576    0.27920    0.69599    1.000
    N4828    N        0.87896    0.27056    0.64140    1.000
    N4829    N        0.83393    0.27840    0.84503    1.000
    Si4830   Si       0.80134    0.29163    0.77591    1.000
    N4831    N        0.79057    0.25570    0.79759    1.000
    N4832    N        0.76226    0.26903    0.86089    1.000
    Si4833   Si       0.79913    0.25084    0.84283    1.000
    N4834    N        0.83188    0.27318    0.74920    1.000
    N4835    N        0.98436    0.28175    0.83526    1.000
    Si4836   Si       0.87293    0.26011    0.83547    1.000
    Si4837   Si       0.92319    0.28109    0.78905    1.000
    N4838    N        0.89766    0.29440    0.82426    1.000
    N4839    N        0.89980    0.28183    0.75175    1.000
    Si4840   Si       0.86867    0.25163    0.74859    1.000
    Si4841   Si       0.85004    0.27815    0.97721    1.000
    N4842    N        0.80640    0.28266    0.97317    1.000
    Si4843   Si       0.78461    0.24793    0.96601    1.000
    N4844    N        0.74966    0.24655    0.93636    1.000
    N4845    N        0.86332    0.28582    0.93405    1.000
    Si4846   Si       0.97695    0.24208    0.98039    1.000
    N4847    N        0.88732    0.24794    0.87646    1.000
    Si4848   Si       0.91192    0.25329    0.97360    1.000
    N4849    N        0.92670    0.25772    0.93202    1.000
    Si4850   Si       0.89581    0.27733    0.90745    1.000
    N4851    N        0.90926    0.28822    0.99579    1.000
    Si4852   Si       0.81244    0.33024    0.05357    1.000
    N4853    N        0.85586    0.32807    0.06213    1.000
    N4854    N        0.80247    0.34304    0.01434    1.000
    N4855    N        0.80112    0.35439    0.08685    1.000
    N4856    N        0.74274    0.30809    0.99846    1.000
    Si4857   Si       0.91230    0.32143    0.09901    1.000
    N4858    N        0.93928    0.35402    0.01238    1.000
    Si4859   Si       0.93197    0.31271    0.02139    1.000
    N4860    N        0.95431    0.31140    0.10782    1.000
    N4861    N        0.74191    0.35276    0.20106    1.000
    Si4862   Si       0.74578    0.30932    0.20729    1.000
    N4863    N        0.81517    0.32249    0.14277    1.000
    N4864    N        0.82279    0.32357    0.23502    1.000
    Si4865   Si       0.85651    0.33233    0.15456    1.000
    N4866    N        0.91413    0.31435    0.20395    1.000
    N4867    N        0.88184    0.30782    0.12766    1.000
    Si4868   Si       0.90494    0.35591    0.20824    1.000
    N4869    N        0.98059    0.31241    0.17013    1.000
    Si4870   Si       0.95875    0.32345    0.20894    1.000
    Si4871   Si       0.97956    0.33336    0.13438    1.000
    N4872    N        0.86512    0.35738    0.19103    1.000
    Si4873   Si       0.80898    0.32348    0.27628    1.000
    N4874    N        0.77012    0.34179    0.29463    1.000
    N4875    N        0.84043    0.35226    0.28717    1.000
    N4876    N        0.76607    0.30156    0.36272    1.000
    N4877    N        0.86342    0.31942    0.34042    1.000
    Si4878   Si       0.85196    0.35635    0.24440    1.000
    N4879    N        0.94477    0.33642    0.34008    1.000
    N4880    N        0.98241    0.31133    0.28952    1.000
    Si4881   Si       0.95912    0.29825    0.32353    1.000
    N4882    N        0.82176    0.30882    0.40383    1.000
    N4883    N        0.81868    0.33230    0.46810    1.000
    Si4884   Si       0.79906    0.33264    0.43054    1.000
    Si4885   Si       0.85407    0.32016    0.48956    1.000
    Si4886   Si       0.85849    0.30704    0.38245    1.000
    N4887    N        0.88131    0.34574    0.40087    1.000
    Si4888   Si       0.90514    0.31914    0.42344    1.000
    Si4889   Si       0.97432    0.31335    0.44554    1.000
    N4890    N        0.88908    0.30996    0.46450    1.000
    Si4891   Si       0.96352    0.35018    0.37841    1.000
    N4892    N        0.94928    0.32922    0.41533    1.000
    Si4893   Si       0.82146    0.32225    0.59989    1.000
    N4894    N        0.78002    0.32103    0.53153    1.000
    N4895    N        0.82308    0.35945    0.57479    1.000
    N4896    N        0.78052    0.30791    0.60373    1.000
    Si4897   Si       0.74111    0.32644    0.59717    1.000
    Si4898   Si       0.78707    0.36073    0.54808    1.000
    Si4899   Si       0.97883    0.34562    0.51220    1.000
    Si4900   Si       0.90459    0.34406    0.53216    1.000
    N4901    N        0.97224    0.31175    0.53919    1.000
    N4902    N        0.86710    0.35422    0.51356    1.000
    N4903    N        0.89833    0.36061    0.57333    1.000
    Si4904   Si       0.77178    0.34229    0.73370    1.000
    N4905    N        0.83968    0.33309    0.63897    1.000
    N4906    N        0.81186    0.33612    0.72406    1.000
    N4907    N        0.74612    0.35252    0.70100    1.000
    N4908    N        0.97584    0.33052    0.61735    1.000
    Si4909   Si       0.93966    0.31078    0.62708    1.000
    N4910    N        0.90745    0.33451    0.64041    1.000
    N4911    N        0.94065    0.31676    0.71054    1.000
    Si4912   Si       0.89888    0.31411    0.72261    1.000
    Si4913   Si       0.87323    0.31146    0.65471    1.000
    N4914    N        0.88619    0.35405    0.73503    1.000
    N4915    N        0.86632    0.30616    0.69652    1.000
    Si4916   Si       0.96474    0.33268    0.74619    1.000
    N4917    N        0.81385    0.32387    0.80078    1.000
    Si4918   Si       0.82870    0.32084    0.84167    1.000
    Si4919   Si       0.75598    0.31018    0.85993    1.000
    N4920    N        0.79262    0.33172    0.86513    1.000
    N4921    N        0.76429    0.30194    0.75406    1.000
    N4922    N        0.86536    0.34658    0.85293    1.000
    N4923    N        0.94264    0.34367    0.84427    1.000
    Si4924   Si       0.90333    0.32725    0.85091    1.000
    Si4925   Si       0.97090    0.32034    0.81971    1.000
    N4926    N        0.95321    0.31176    0.78073    1.000
    N4927    N        0.77386    0.33761    0.94336    1.000
    Si4928   Si       0.78167    0.31964    0.98295    1.000
    N4929    N        0.85293    0.32363    0.98122    1.000
    N4930    N        0.84424    0.35394    0.91666    1.000
    Si4931   Si       0.83570    0.36253    0.99716    1.000
    N4932    N        0.91056    0.31429    0.89240    1.000
    Si4933   Si       0.92795    0.34967    0.91368    1.000
    Si4934   Si       0.86960    0.32770    0.94114    1.000
    N4935    N        0.90745    0.34393    0.95253    1.000
    N4936    N        0.96902    0.34149    0.92344    1.000
    N4937    N        0.84588    0.40031    0.06214    1.000
    N4938    N        0.76872    0.40308    0.05693    1.000
    Si4939   Si       0.75862    0.37071    0.08495    1.000
    Si4940   Si       0.74594    0.41553    0.02301    1.000
    Si4941   Si       0.86202    0.36730    0.08379    1.000
    Si4942   Si       0.80674    0.41992    0.07282    1.000
    Si4943   Si       0.86382    0.41802    0.02658    1.000
    N4944    N        0.97984    0.37441    0.07207    1.000
    N4945    N        0.97242    0.41163    0.01415    1.000
    Si4946   Si       0.94598    0.38206    0.09914    1.000
    Si4947   Si       0.97791    0.37022    0.02707    1.000
    N4948    N        0.87318    0.38201    0.00357    1.000
    N4949    N        0.90552    0.36423    0.08954    1.000
    N4950    N        0.85022    0.37176    0.12718    1.000
    Si4951   Si       0.75443    0.38176    0.17121    1.000
    Si4952   Si       0.83533    0.39060    0.19105    1.000
    N4953    N        0.83338    0.39443    0.23489    1.000
    N4954    N        0.79846    0.37980    0.17146    1.000
    N4955    N        0.75818    0.36839    0.12808    1.000
    Si4956   Si       0.80393    0.36270    0.13066    1.000
    N4957    N        0.74097    0.41417    0.24047    1.000
    Si4958   Si       0.85099    0.41434    0.13114    1.000
    N4959    N        0.94823    0.36448    0.20587    1.000
    N4960    N        0.95509    0.36922    0.13901    1.000
    Si4961   Si       0.96360    0.39111    0.17524    1.000
    N4962    N        0.81520    0.37449    0.34252    1.000
    Si4963   Si       0.77444    0.36942    0.32832    1.000
    N4964    N        0.76281    0.40895    0.31150    1.000
    Si4965   Si       0.81915    0.41283    0.36403    1.000
    Si4966   Si       0.85311    0.35820    0.32860    1.000
    Si4967   Si       0.92833    0.37822    0.33325    1.000
    N4968    N        0.88494    0.38397    0.34503    1.000
    N4969    N        0.93798    0.39652    0.29548    1.000
    Si4970   Si       0.97995    0.40388    0.29252    1.000
    Si4971   Si       0.91172    0.40570    0.26177    1.000
    N4972    N        0.98404    0.40782    0.24953    1.000
    N4973    N        0.89449    0.36822    0.24762    1.000
    N4974    N        0.83479    0.40098    0.47330    1.000
    N4975    N        0.84326    0.40505    0.39964    1.000
    N4976    N        0.78239    0.37260    0.43567    1.000
    Si4977   Si       0.77173    0.40995    0.41450    1.000
    Si4978   Si       0.80108    0.37203    0.47719    1.000
    N4979    N        0.90045    0.41340    0.48641    1.000
    N4980    N        0.95091    0.39131    0.36899    1.000
    N4981    N        0.90623    0.41523    0.41216    1.000
    Si4982   Si       0.88122    0.38704    0.39001    1.000
    N4983    N        0.78069    0.38566    0.51256    1.000
    Si4984   Si       0.85868    0.38149    0.57586    1.000
    N4985    N        0.85731    0.41227    0.54419    1.000
    N4986    N        0.75364    0.36243    0.57784    1.000
    Si4987   Si       0.73856    0.39511    0.51488    1.000
    N4988    N        0.86642    0.39509    0.61711    1.000
    Si4989   Si       0.86431    0.39621    0.50263    1.000
    Si4990   Si       0.93666    0.40762    0.51175    1.000
    Si4991   Si       0.90508    0.37128    0.61586    1.000
    N4992    N        0.93820    0.36339    0.51222    1.000
    Si4993   Si       0.98409    0.41981    0.57199    1.000
    N4994    N        0.80025    0.39561    0.64107    1.000
    Si4995   Si       0.83793    0.37543    0.64663    1.000
    N4996    N        0.84956    0.38660    0.68754    1.000
    Si4997   Si       0.84534    0.36270    0.72503    1.000
    N4998    N        0.91050    0.41755    0.71096    1.000
    Si4999   Si       0.97433    0.37200    0.62902    1.000
    N5000    N        0.93882    0.39363    0.62155    1.000
    Si5001   Si       0.91205    0.38647    0.74393    1.000
    N5002    N        0.80161    0.38626    0.82686    1.000
    Si5003   Si       0.78361    0.37322    0.86224    1.000
    N5004    N        0.83297    0.38469    0.76218    1.000
    N5005    N        0.76616    0.37024    0.76561    1.000
    Si5006   Si       0.80529    0.36534    0.78871    1.000
    N5007    N        0.74007    0.38385    0.85874    1.000
    N5008    N        0.89421    0.40065    0.78008    1.000
    Si5009   Si       0.98012    0.40401    0.75820    1.000
    N5010    N        0.95360    0.37360    0.74626    1.000
    N5011    N        0.84547    0.41388    0.87345    1.000
    Si5012   Si       0.74439    0.40674    0.89718    1.000
    N5013    N        0.81629    0.38877    0.96614    1.000
    N5014    N        0.78932    0.39352    0.90025    1.000
    Si5015   Si       0.80595    0.36670    0.93118    1.000
    N5016    N        0.92192    0.41070    0.96773    1.000
    Si5017   Si       0.86586    0.37739    0.88550    1.000
    Si5018   Si       0.91158    0.37207    0.98502    1.000
    N5019    N        0.90475    0.38493    0.90199    1.000
    N5020    N        0.83506    0.44259    0.00648    1.000
    Si5021   Si       0.82571    0.47616    0.03289    1.000
    N5022    N        0.80616    0.46388    0.06755    1.000
    Si5023   Si       0.81115    0.47030    0.11174    1.000
    N5024    N        0.81334    0.42686    0.11603    1.000
    Si5025   Si       0.91058    0.44046    0.07842    1.000
    N5026    N        0.88263    0.44088    0.11357    1.000
    Si5027   Si       0.93408    0.43049    0.00292    1.000
    N5028    N        0.90415    0.42693    0.03700    1.000
    N5029    N        0.94664    0.42406    0.09492    1.000
    Si5030   Si       0.98676    0.44389    0.09449    1.000
    N5031    N        0.92934    0.47291    0.99773    1.000
    N5032    N        0.84852    0.42718    0.17319    1.000
    Si5033   Si       0.85168    0.46591    0.19306    1.000
    N5034    N        0.85021    0.46669    0.23717    1.000
    N5035    N        0.77691    0.45934    0.20313    1.000
    Si5036   Si       0.80450    0.47252    0.23457    1.000
    N5037    N        0.77329    0.47917    0.13284    1.000
    N5038    N        0.89110    0.47461    0.17778    1.000
    Si5039   Si       0.92614    0.45976    0.19943    1.000
    N5040    N        0.91619    0.44088    0.23569    1.000
    N5041    N        0.95049    0.43311    0.17177    1.000
    Si5042   Si       0.97518    0.46881    0.16204    1.000
    N5043    N        0.97328    0.47915    0.12026    1.000
    N5044    N        0.79972    0.44309    0.26716    1.000
    N5045    N        0.84411    0.44250    0.34211    1.000
    Si5046   Si       0.75955    0.43465    0.27660    1.000
    Si5047   Si       0.74775    0.43291    0.34432    1.000
    Si5048   Si       0.83979    0.42752    0.25991    1.000
    N5049    N        0.91428    0.44367    0.34236    1.000
    Si5050   Si       0.89040    0.46500    0.26003    1.000
    N5051    N        0.87601    0.42734    0.28228    1.000
    Si5052   Si       0.88036    0.42504    0.32572    1.000
    N5053    N        0.78035    0.42530    0.37479    1.000
    N5054    N        0.79452    0.44099    0.43657    1.000
    Si5055   Si       0.83610    0.42540    0.43809    1.000
    N5056    N        0.76660    0.47940    0.48718    1.000
    N5057    N        0.97049    0.42366    0.48928    1.000
    N5058    N        0.97927    0.43187    0.41565    1.000
    Si5059   Si       0.94159    0.43089    0.39262    1.000
    Si5060   Si       0.90069    0.43628    0.45051    1.000
    Si5061   Si       0.97063    0.45018    0.45395    1.000
    N5062    N        0.93030    0.46772    0.45314    1.000
    N5063    N        0.86332    0.45770    0.44723    1.000
    N5064    N        0.84142    0.45733    0.59103    1.000
    Si5065   Si       0.85103    0.45267    0.54926    1.000
    N5066    N        0.74503    0.42723    0.60926    1.000
    N5067    N        0.77600    0.47152    0.56363    1.000
    Si5068   Si       0.73801    0.46223    0.58330    1.000
    N5069    N        0.83087    0.48266    0.52558    1.000
    Si5070   Si       0.92416    0.45822    0.56674    1.000
    N5071    N        0.90921    0.45036    0.60664    1.000
    N5072    N        0.97561    0.45026    0.60226    1.000
    N5073    N        0.94593    0.42326    0.55070    1.000
    N5074    N        0.89196    0.47050    0.54052    1.000
    Si5075   Si       0.76787    0.46942    0.70627    1.000
    Si5076   Si       0.77264    0.42972    0.64355    1.000
    N5077    N        0.76072    0.43114    0.68540    1.000
    N5078    N        0.79734    0.46549    0.63726    1.000
    N5079    N        0.85172    0.43963    0.73339    1.000
    Si5080   Si       0.82783    0.48120    0.66475    1.000
    N5081    N        0.85987    0.44924    0.66240    1.000
    Si5082   Si       0.94222    0.44614    0.70914    1.000
    Si5083   Si       0.86826    0.43955    0.61955    1.000
    Si5084   Si       0.94330    0.43551    0.62964    1.000
    N5085    N        0.98438    0.43083    0.72032    1.000
    N5086    N        0.94864    0.45469    0.66739    1.000
    Si5087   Si       0.87117    0.42574    0.69666    1.000
    N5088    N        0.83601    0.44184    0.80421    1.000
    N5089    N        0.79347    0.44613    0.85928    1.000
    Si5090   Si       0.82136    0.42220    0.83801    1.000
    Si5091   Si       0.85518    0.41988    0.77106    1.000
    Si5092   Si       0.91448    0.43339    0.79753    1.000
    Si5093   Si       0.98029    0.45839    0.80503    1.000
    Si5094   Si       0.94495    0.44676    0.86374    1.000
    N5095    N        0.88842    0.46395    0.78044    1.000
    N5096    N        0.95626    0.42705    0.78454    1.000
    N5097    N        0.91242    0.43083    0.83964    1.000
    N5098    N        0.98595    0.44132    0.84595    1.000
    Si5099   Si       0.81138    0.43176    0.89823    1.000
    N5100    N        0.81932    0.44854    0.93635    1.000
    Si5101   Si       0.80912    0.43005    0.97602    1.000
    Si5102   Si       0.74287    0.47113    0.97735    1.000
    N5103    N        0.76870    0.43935    0.99452    1.000
    Si5104   Si       0.85115    0.47712    0.93737    1.000
    N5105    N        0.94822    0.43849    0.90643    1.000
    N5106    N        0.89000    0.46129    0.92311    1.000
    Si5107   Si       0.97632    0.45979    0.92731    1.000
    Si5108   Si       0.91195    0.42281    0.92487    1.000
    N5109    N        0.98931    0.45923    0.96886    1.000
    Si5110   Si       0.76925    0.52768    0.01309    1.000
    N5111    N        0.80606    0.50785    0.00876    1.000
    Si5112   Si       0.84619    0.52468    0.00443    1.000
    N5113    N        0.73785    0.49982    0.01312    1.000
    N5114    N        0.84699    0.49722    0.11980    1.000
    N5115    N        0.86540    0.49455    0.03069    1.000
    Si5116   Si       0.94563    0.50490    0.09822    1.000
    Si5117   Si       0.90856    0.49314    0.03217    1.000
    N5118    N        0.98273    0.52161    0.00413    1.000
    Si5119   Si       0.87192    0.53503    0.11442    1.000
    N5120    N        0.92622    0.47968    0.06880    1.000
    N5121    N        0.91783    0.53616    0.02888    1.000
    Si5122   Si       0.78100    0.49030    0.17220    1.000
    N5123    N        0.75406    0.52296    0.19169    1.000
    N5124    N        0.82324    0.49764    0.18209    1.000
    Si5125   Si       0.88445    0.47876    0.13570    1.000
    Si5126   Si       0.97126    0.52432    0.21269    1.000
    N5127    N        0.90954    0.51135    0.12247    1.000
    N5128    N        0.95602    0.49050    0.19358    1.000
    N5129    N        0.83847    0.50736    0.30368    1.000
    Si5130   Si       0.80623    0.53015    0.28541    1.000
    Si5131   Si       0.84577    0.48490    0.34196    1.000
    Si5132   Si       0.74286    0.50056    0.31232    1.000
    N5133    N        0.79430    0.51222    0.24940    1.000
    N5134    N        0.77010    0.53437    0.30650    1.000
    N5135    N        0.81653    0.49387    0.37126    1.000
    N5136    N        0.75289    0.47476    0.34368    1.000
    Si5137   Si       0.92299    0.48469    0.34958    1.000
    N5138    N        0.95503    0.49341    0.32076    1.000
    N5139    N        0.90272    0.50175    0.27935    1.000
    N5140    N        0.88374    0.50770    0.34808    1.000
    Si5141   Si       0.94338    0.51813    0.28555    1.000
    N5142    N        0.97639    0.51516    0.25622    1.000
    Si5143   Si       0.87697    0.52978    0.30761    1.000
    N5144    N        0.81637    0.51076    0.44742    1.000
    N5145    N        0.76128    0.48810    0.41115    1.000
    Si5146   Si       0.78382    0.48115    0.44637    1.000
    Si5147   Si       0.85858    0.50106    0.44679    1.000
    Si5148   Si       0.78007    0.47396    0.37640    1.000
    N5149    N        0.87290    0.52228    0.48317    1.000
    N5150    N        0.95325    0.53101    0.44356    1.000
    N5151    N        0.88862    0.51617    0.41741    1.000
    Si5152   Si       0.98572    0.52104    0.46902    1.000
    Si5153   Si       0.92986    0.49940    0.42563    1.000
    N5154    N        0.93742    0.47628    0.38894    1.000
    N5155    N        0.81130    0.52296    0.59579    1.000
    Si5156   Si       0.78714    0.48716    0.52449    1.000
    N5157    N        0.78436    0.52979    0.53015    1.000
    Si5158   Si       0.80421    0.47871    0.59630    1.000
    N5159    N        0.86318    0.53440    0.55163    1.000
    Si5160   Si       0.87130    0.50264    0.52171    1.000
    N5161    N        0.94915    0.49539    0.56727    1.000
    Si5162   Si       0.95984    0.53248    0.54797    1.000
    N5163    N        0.98487    0.52585    0.51256    1.000
    Si5164   Si       0.98590    0.49651    0.59339    1.000
    N5165    N        0.83668    0.52254    0.65672    1.000
    Si5166   Si       0.84228    0.48190    0.73243    1.000
    N5167    N        0.73926    0.49811    0.68894    1.000
    N5168    N        0.80969    0.47995    0.70429    1.000
    N5169    N        0.87221    0.50868    0.71634    1.000
    N5170    N        0.97971    0.51384    0.63175    1.000
    N5171    N        0.93201    0.47947    0.73395    1.000
    N5172    N        0.93072    0.52081    0.67776    1.000
    Si5173   Si       0.96268    0.49554    0.66581    1.000
    Si5174   Si       0.91600    0.51607    0.71692    1.000
    N5175    N        0.82564    0.50491    0.76718    1.000
    N5176    N        0.82971    0.50241    0.83620    1.000
    Si5177   Si       0.78219    0.50430    0.77121    1.000
    N5178    N        0.76591    0.49310    0.81062    1.000
    Si5179   Si       0.78778    0.48787    0.84731    1.000
    Si5180   Si       0.85338    0.48421    0.80131    1.000
    Si5181   Si       0.83502    0.53114    0.86865    1.000
    N5182    N        0.75576    0.48258    0.74726    1.000
    Si5183   Si       0.92713    0.51267    0.83366    1.000
    N5184    N        0.88967    0.51745    0.81061    1.000
    Si5185   Si       0.91878    0.49460    0.77428    1.000
    N5186    N        0.94744    0.48571    0.80673    1.000
    N5187    N        0.76640    0.50689    0.88018    1.000
    N5188    N        0.84004    0.50916    0.90555    1.000
    N5189    N        0.74914    0.50121    0.94724    1.000
    N5190    N        0.85931    0.51248    0.96461    1.000
    Si5191   Si       0.86389    0.53707    0.92989    1.000
    Si5192   Si       0.98476    0.53693    0.92453    1.000
    N5193    N        0.95800    0.49943    0.93519    1.000
    Si5194   Si       0.91937    0.49302    0.91204    1.000
    N5195    N        0.93142    0.48866    0.86992    1.000
    Si5196   Si       0.96395    0.49202    0.97871    1.000
    N5197    N        0.90591    0.53349    0.91918    1.000
    N5198    N        0.81934    0.57571    0.08763    1.000
    Si5199   Si       0.80764    0.57493    0.04479    1.000
    N5200    N        0.84669    0.56209    0.02513    1.000
    N5201    N        0.77271    0.54873    0.05154    1.000
    N5202    N        0.74176    0.56404    0.11184    1.000
    Si5203   Si       0.78530    0.57319    0.11348    1.000
    Si5204   Si       0.73501    0.54171    0.07355    1.000
    Si5205   Si       0.85838    0.59556    0.08714    1.000
    N5206    N        0.88081    0.55923    0.08043    1.000
    Si5207   Si       0.88866    0.56579    0.03863    1.000
    N5208    N        0.97755    0.58524    0.03247    1.000
    Si5209   Si       0.98090    0.57141    0.10182    1.000
    Si5210   Si       0.96208    0.54404    0.03500    1.000
    N5211    N        0.96297    0.53830    0.07821    1.000
    Si5212   Si       0.74314    0.54574    0.15348    1.000
    N5213    N        0.76422    0.57806    0.23172    1.000
    N5214    N        0.82260    0.55709    0.20930    1.000
    N5215    N        0.79115    0.55248    0.14953    1.000
    Si5216   Si       0.82844    0.58986    0.23632    1.000
    Si5217   Si       0.78260    0.54265    0.22128    1.000
    Si5218   Si       0.82798    0.54212    0.17034    1.000
    N5219    N        0.85938    0.55877    0.14746    1.000
    N5220    N        0.94692    0.56058    0.20938    1.000
    N5221    N        0.98386    0.56475    0.14491    1.000
    Si5222   Si       0.96002    0.58611    0.17577    1.000
    Si5223   Si       0.87923    0.59754    0.15402    1.000
    N5224    N        0.81887    0.57058    0.27632    1.000
    N5225    N        0.87710    0.57174    0.31925    1.000
    N5226    N        0.93008    0.56033    0.28404    1.000
    Si5227   Si       0.92426    0.58275    0.32331    1.000
    N5228    N        0.92783    0.55580    0.36071    1.000
    Si5229   Si       0.94086    0.58361    0.24697    1.000
    N5230    N        0.97839    0.59724    0.26230    1.000
    N5231    N        0.77971    0.57783    0.41166    1.000
    N5232    N        0.83853    0.57403    0.45164    1.000
    Si5233   Si       0.80286    0.55346    0.44228    1.000
    N5234    N        0.76592    0.55026    0.46626    1.000
    Si5235   Si       0.74127    0.57151    0.43747    1.000
    Si5236   Si       0.94435    0.57416    0.44504    1.000
    N5237    N        0.90134    0.58148    0.44688    1.000
    N5238    N        0.95673    0.58944    0.48483    1.000
    Si5239   Si       0.89148    0.53849    0.37998    1.000
    Si5240   Si       0.87308    0.56397    0.47470    1.000
    N5241    N        0.86592    0.57603    0.38544    1.000
    N5242    N        0.96964    0.59015    0.41234    1.000
    Si5243   Si       0.96968    0.57039    0.37204    1.000
    N5244    N        0.76112    0.57550    0.58466    1.000
    N5245    N        0.81787    0.57974    0.54793    1.000
    Si5246   Si       0.78435    0.55391    0.61271    1.000
    Si5247   Si       0.77509    0.58647    0.54401    1.000
    Si5248   Si       0.74800    0.53976    0.50495    1.000
    Si5249   Si       0.82091    0.53562    0.55407    1.000
    N5250    N        0.92810    0.56105    0.54563    1.000
    Si5251   Si       0.89561    0.55595    0.57457    1.000
    N5252    N        0.88825    0.54295    0.61581    1.000
    N5253    N        0.87906    0.59036    0.50917    1.000
    N5254    N        0.81862    0.57917    0.62423    1.000
    N5255    N        0.76998    0.58717    0.70726    1.000
    N5256    N        0.75733    0.55115    0.64746    1.000
    N5257    N        0.83095    0.56138    0.72705    1.000
    Si5258   Si       0.74913    0.58802    0.66862    1.000
    Si5259   Si       0.84474    0.54239    0.62048    1.000
    Si5260   Si       0.85352    0.54080    0.69504    1.000
    Si5261   Si       0.74874    0.57433    0.74229    1.000
    N5262    N        0.88511    0.56693    0.68083    1.000
    N5263    N        0.94588    0.57114    0.63468    1.000
    Si5264   Si       0.91259    0.55113    0.65221    1.000
    N5265    N        0.83578    0.56891    0.80077    1.000
    Si5266   Si       0.81799    0.54958    0.76734    1.000
    Si5267   Si       0.81756    0.58981    0.83541    1.000
    N5268    N        0.80231    0.56004    0.86343    1.000
    N5269    N        0.77492    0.54724    0.76411    1.000
    N5270    N        0.86471    0.56110    0.86178    1.000
    Si5271   Si       0.93667    0.56383    0.78582    1.000
    Si5272   Si       0.87462    0.55730    0.81886    1.000
    N5273    N        0.90281    0.58644    0.80709    1.000
    N5274    N        0.95173    0.54749    0.82407    1.000
    N5275    N        0.92312    0.53633    0.75604    1.000
    Si5276   Si       0.76455    0.54954    0.87683    1.000
    N5277    N        0.75978    0.56204    0.98726    1.000
    N5278    N        0.84972    0.57536    0.92440    1.000
    N5279    N        0.75790    0.56617    0.91767    1.000
    Si5280   Si       0.74126    0.54371    0.95215    1.000
    N5281    N        0.96364    0.57293    0.93492    1.000
    Si5282   Si       0.91992    0.57493    0.92944    1.000
    N5283    N        0.90417    0.58595    0.96631    1.000
    Si5284   Si       0.83056    0.63891    0.02374    1.000
    N5285    N        0.84942    0.63141    0.06402    1.000
    N5286    N        0.79859    0.61057    0.02142    1.000
    N5287    N        0.77724    0.61691    0.12021    1.000
    Si5288   Si       0.79104    0.65666    0.11011    1.000
    Si5289   Si       0.86059    0.65685    0.09732    1.000
    N5290    N        0.96546    0.65810    0.03862    1.000
    Si5291   Si       0.95189    0.61576    0.05080    1.000
    N5292    N        0.95589    0.60640    0.09332    1.000
    N5293    N        0.91123    0.60350    0.03506    1.000
    N5294    N        0.88338    0.62057    0.11330    1.000
    N5295    N        0.80745    0.62555    0.23058    1.000
    N5296    N        0.86368    0.62823    0.18095    1.000
    Si5297   Si       0.92748    0.62415    0.12063    1.000
    N5298    N        0.92889    0.62294    0.22563    1.000
    Si5299   Si       0.88623    0.63299    0.22007    1.000
    N5300    N        0.92387    0.59911    0.15675    1.000
    N5301    N        0.84056    0.62750    0.30212    1.000
    N5302    N        0.76981    0.61751    0.29101    1.000
    N5303    N        0.75062    0.62702    0.35683    1.000
    Si5304   Si       0.74523    0.64254    0.31502    1.000
    N5305    N        0.85344    0.63859    0.36301    1.000
    Si5306   Si       0.76254    0.61977    0.24611    1.000
    Si5307   Si       0.85204    0.59618    0.34957    1.000
    Si5308   Si       0.80633    0.60014    0.30545    1.000
    N5309    N        0.80937    0.59155    0.34712    1.000
    N5310    N        0.91138    0.62244    0.30600    1.000
    Si5311   Si       0.97848    0.63997    0.34597    1.000
    N5312    N        0.97028    0.59660    0.33657    1.000
    Si5313   Si       0.87500    0.60410    0.28886    1.000
    N5314    N        0.87117    0.60104    0.24589    1.000
    Si5315   Si       0.78448    0.60740    0.38027    1.000
    N5316    N        0.79634    0.64266    0.40521    1.000
    N5317    N        0.74911    0.65102    0.46356    1.000
    Si5318   Si       0.86766    0.59984    0.42346    1.000
    N5319    N        0.86740    0.64347    0.42555    1.000
    N5320    N        0.77224    0.62676    0.53113    1.000
    N5321    N        0.84626    0.64319    0.54243    1.000
    Si5322   Si       0.85504    0.60062    0.54256    1.000
    Si5323   Si       0.87150    0.63098    0.60542    1.000
    N5324    N        0.92924    0.63277    0.53134    1.000
    N5325    N        0.95245    0.62832    0.60151    1.000
    N5326    N        0.88109    0.59816    0.57825    1.000
    Si5327   Si       0.92660    0.59300    0.51599    1.000
    N5328    N        0.83451    0.64598    0.62338    1.000
    N5329    N        0.83292    0.61315    0.68357    1.000
    Si5330   Si       0.81145    0.61688    0.64418    1.000
    N5331    N        0.76854    0.62274    0.65008    1.000
    Si5332   Si       0.81146    0.59702    0.71695    1.000
    N5333    N        0.95983    0.62389    0.67651    1.000
    N5334    N        0.89266    0.62019    0.64309    1.000
    Si5335   Si       0.87597    0.61009    0.68100    1.000
    N5336    N        0.89979    0.63388    0.70767    1.000
    Si5337   Si       0.94036    0.64756    0.70691    1.000
    Si5338   Si       0.93677    0.61353    0.63979    1.000
    Si5339   Si       0.77672    0.63064    0.77933    1.000
    N5340    N        0.78449    0.61137    0.81829    1.000
    Si5341   Si       0.75418    0.61055    0.84740    1.000
    N5342    N        0.83853    0.61870    0.86323    1.000
    N5343    N        0.80673    0.62544    0.74725    1.000
    N5344    N        0.95402    0.61660    0.84099    1.000
    Si5345   Si       0.92881    0.62082    0.80694    1.000
    N5346    N        0.95611    0.60207    0.77566    1.000
    Si5347   Si       0.98817    0.62747    0.76147    1.000
    Si5348   Si       0.80774    0.64770    0.87347    1.000
    N5349    N        0.80282    0.60851    0.95262    1.000
    Si5350   Si       0.77043    0.60658    0.92556    1.000
    Si5351   Si       0.84517    0.60888    0.95256    1.000
    N5352    N        0.76951    0.62382    0.88461    1.000
    N5353    N        0.85762    0.62572    0.99083    1.000
    N5354    N        0.74534    0.62268    0.95773    1.000
    Si5355   Si       0.77535    0.60240    0.98651    1.000
    N5356    N        0.86683    0.63428    0.92183    1.000
    Si5357   Si       0.90063    0.61669    0.99484    1.000
    N5358    N        0.92146    0.65583    0.98590    1.000
    Si5359   Si       0.98595    0.61189    0.93804    1.000
    Si5360   Si       0.93706    0.62937    0.87933    1.000
    Si5361   Si       0.86642    0.59894    0.89104    1.000
    N5362    N        0.96718    0.63784    0.90855    1.000
    N5363    N        0.91125    0.59749    0.89261    1.000
    N5364    N        0.82773    0.68127    0.02292    1.000
    Si5365   Si       0.80091    0.69848    0.05345    1.000
    N5366    N        0.78113    0.66331    0.06779    1.000
    Si5367   Si       0.74082    0.65705    0.05526    1.000
    N5368    N        0.88709    0.68969    0.09176    1.000
    Si5369   Si       0.97710    0.69652    0.05646    1.000
    Si5370   Si       0.89992    0.71707    0.05896    1.000
    N5371    N        0.89834    0.71469    0.01720    1.000
    Si5372   Si       0.73933    0.69933    0.23033    1.000
    Si5373   Si       0.77682    0.71130    0.18209    1.000
    N5374    N        0.75856    0.68401    0.12515    1.000
    Si5375   Si       0.80379    0.66832    0.23085    1.000
    N5376    N        0.81085    0.68420    0.19249    1.000
    Si5377   Si       0.84305    0.66665    0.16919    1.000
    N5378    N        0.83114    0.65908    0.12680    1.000
    N5379    N        0.76206    0.66497    0.24620    1.000
    Si5380   Si       0.90090    0.69993    0.20223    1.000
    N5381    N        0.94319    0.68832    0.20679    1.000
    N5382    N        0.88211    0.67543    0.23379    1.000
    N5383    N        0.94337    0.66337    0.12840    1.000
    Si5384   Si       0.98560    0.67305    0.12753    1.000
    N5385    N        0.88381    0.68690    0.16425    1.000
    Si5386   Si       0.90598    0.69269    0.12915    1.000
    Si5387   Si       0.97747    0.71122    0.19532    1.000
    Si5388   Si       0.95210    0.65972    0.23813    1.000
    N5389    N        0.81674    0.69264    0.32476    1.000
    Si5390   Si       0.79102    0.69862    0.29099    1.000
    N5391    N        0.75266    0.68612    0.30843    1.000
    N5392    N        0.82398    0.69108    0.26032    1.000
    Si5393   Si       0.84855    0.66272    0.32620    1.000
    Si5394   Si       0.86640    0.69909    0.26697    1.000
    N5395    N        0.88059    0.68641    0.30762    1.000
    N5396    N        0.94386    0.67504    0.27705    1.000
    N5397    N        0.94494    0.66719    0.34665    1.000
    Si5398   Si       0.92089    0.66356    0.30980    1.000
    Si5399   Si       0.94893    0.70805    0.36024    1.000
    N5400    N        0.80580    0.69418    0.44788    1.000
    N5401    N        0.83276    0.70136    0.39033    1.000
    Si5402   Si       0.77534    0.66784    0.43346    1.000
    N5403    N        0.85432    0.67559    0.48538    1.000
    Si5404   Si       0.81945    0.70217    0.49244    1.000
    N5405    N        0.74738    0.69574    0.41259    1.000
    Si5406   Si       0.83603    0.65661    0.39706    1.000
    N5407    N        0.98245    0.68526    0.43525    1.000
    Si5408   Si       0.87878    0.67680    0.44998    1.000
    N5409    N        0.92743    0.70961    0.39787    1.000
    Si5410   Si       0.94238    0.69865    0.43888    1.000
    N5411    N        0.92012    0.67357    0.46580    1.000
    N5412    N        0.79138    0.67342    0.58030    1.000
    N5413    N        0.78786    0.68245    0.51046    1.000
    Si5414   Si       0.75238    0.69166    0.57891    1.000
    Si5415   Si       0.81092    0.68182    0.61720    1.000
    N5416    N        0.84007    0.70996    0.53687    1.000
    Si5417   Si       0.80304    0.65820    0.54325    1.000
    Si5418   Si       0.75017    0.66019    0.50909    1.000
    Si5419   Si       0.86772    0.67783    0.52810    1.000
    Si5420   Si       0.98021    0.70121    0.60711    1.000
    N5421    N        0.97525    0.66902    0.50524    1.000
    Si5422   Si       0.93224    0.66821    0.50605    1.000
    N5423    N        0.90733    0.69402    0.52994    1.000
    N5424    N        0.96212    0.68226    0.57236    1.000
    N5425    N        0.89508    0.66572    0.59460    1.000
    Si5426   Si       0.93027    0.65121    0.57159    1.000
    Si5427   Si       0.75138    0.66243    0.64777    1.000
    N5428    N        0.78769    0.69080    0.72537    1.000
    N5429    N        0.78505    0.68728    0.65282    1.000
    N5430    N        0.84849    0.67654    0.70981    1.000
    Si5431   Si       0.81979    0.66784    0.74112    1.000
    Si5432   Si       0.90557    0.70308    0.61921    1.000
    N5433    N        0.92675    0.68854    0.69711    1.000
    Si5434   Si       0.88416    0.67623    0.68937    1.000
    N5435    N        0.97287    0.65772    0.73642    1.000
    N5436    N        0.87871    0.70265    0.65349    1.000
    N5437    N        0.94744    0.70945    0.63618    1.000
    N5438    N        0.79664    0.67904    0.84627    1.000
    N5439    N        0.77381    0.67341    0.78425    1.000
    Si5440   Si       0.80821    0.68862    0.80582    1.000
    N5441    N        0.83920    0.67229    0.78160    1.000
    Si5442   Si       0.75873    0.70301    0.85607    1.000
    Si5443   Si       0.75943    0.70560    0.75506    1.000
    Si5444   Si       0.87997    0.68690    0.79166    1.000
    N5445    N        0.87683    0.70864    0.82818    1.000
    Si5446   Si       0.89604    0.70121    0.86522    1.000
    N5447    N        0.90990    0.65760    0.79592    1.000
    N5448    N        0.78843    0.69543    0.96782    1.000
    N5449    N        0.81531    0.67267    0.90913    1.000
    Si5450   Si       0.82580    0.70750    0.98837    1.000
    Si5451   Si       0.79274    0.70356    0.92552    1.000
    Si5452   Si       0.85589    0.67664    0.92277    1.000
    N5453    N        0.75750    0.70723    0.89950    1.000
    N5454    N        0.85858    0.69340    0.96406    1.000
    Si5455   Si       0.75340    0.70040    0.99529    1.000
    N5456    N        0.96913    0.70557    0.99045    1.000
    N5457    N        0.91312    0.66455    0.87390    1.000
    Si5458   Si       0.90139    0.69289    0.98000    1.000
    N5459    N        0.86840    0.70645    0.89663    1.000
    N5460    N        0.98074    0.70693    0.92056    1.000
    Si5461   Si       0.96228    0.66121    0.99683    1.000
    Si5462   Si       0.83218    0.75434    0.08257    1.000
    Si5463   Si       0.76576    0.75683    0.04903    1.000
    Si5464   Si       0.76997    0.72609    0.11369    1.000
    N5465    N        0.77390    0.72037    0.02762    1.000
    N5466    N        0.80629    0.72095    0.08995    1.000
    N5467    N        0.74430    0.74018    0.08320    1.000
    N5468    N        0.85156    0.77052    0.11781    1.000
    N5469    N        0.86756    0.74797    0.05704    1.000
    Si5470   Si       0.87535    0.75339    0.01401    1.000
    Si5471   Si       0.94585    0.75064    0.10005    1.000
    N5472    N        0.94349    0.72016    0.07040    1.000
    N5473    N        0.77735    0.74618    0.15195    1.000
    N5474    N        0.77071    0.72942    0.22265    1.000
    Si5475   Si       0.89324    0.77201    0.12439    1.000
    N5476    N        0.97566    0.76677    0.12404    1.000
    N5477    N        0.91702    0.73429    0.13164    1.000
    N5478    N        0.89077    0.74088    0.21160    1.000
    Si5479   Si       0.97721    0.75924    0.23082    1.000
    N5480    N        0.96063    0.75191    0.19164    1.000
    N5481    N        0.78039    0.74096    0.28879    1.000
    N5482    N        0.78899    0.75049    0.35669    1.000
    Si5483   Si       0.76352    0.76173    0.32440    1.000
    Si5484   Si       0.82246    0.72245    0.35392    1.000
    Si5485   Si       0.77448    0.75936    0.25174    1.000
    N5486    N        0.86157    0.74167    0.34735    1.000
    N5487    N        0.87717    0.74045    0.27730    1.000
    N5488    N        0.93004    0.72991    0.32764    1.000
    N5489    N        0.94545    0.74937    0.25907    1.000
    Si5490   Si       0.96104    0.74361    0.30030    1.000
    Si5491   Si       0.88856    0.72921    0.31697    1.000
    Si5492   Si       0.90501    0.75743    0.24792    1.000
    N5493    N        0.80898    0.76121    0.42229    1.000
    Si5494   Si       0.83030    0.72337    0.42782    1.000
    N5495    N        0.82334    0.74608    0.48625    1.000
    Si5496   Si       0.90538    0.74099    0.42136    1.000
    N5497    N        0.87388    0.71868    0.43742    1.000
    N5498    N        0.93963    0.74284    0.44896    1.000
    N5499    N        0.98917    0.71804    0.37293    1.000
    N5500    N        0.76025    0.73396    0.58561    1.000
    Si5501   Si       0.79850    0.75440    0.59451    1.000
    Si5502   Si       0.83614    0.75301    0.52838    1.000
    N5503    N        0.82387    0.72658    0.61483    1.000
    N5504    N        0.87875    0.76300    0.52768    1.000
    N5505    N        0.94766    0.75655    0.54262    1.000
    N5506    N        0.89899    0.73341    0.58754    1.000
    Si5507   Si       0.91050    0.73328    0.54633    1.000
    N5508    N        0.74846    0.73422    0.69943    1.000
    Si5509   Si       0.84925    0.73377    0.64848    1.000
    N5510    N        0.82002    0.74023    0.68101    1.000
    Si5511   Si       0.75209    0.77012    0.72616    1.000
    Si5512   Si       0.78756    0.71351    0.68835    1.000
    Si5513   Si       0.95233    0.76608    0.72743    1.000
    N5514    N        0.87626    0.76663    0.64157    1.000
    N5515    N        0.93245    0.75627    0.68946    1.000
    Si5516   Si       0.95238    0.71860    0.67811    1.000
    N5517    N        0.76623    0.74862    0.76182    1.000
    Si5518   Si       0.78411    0.75898    0.80120    1.000
    N5519    N        0.75578    0.73779    0.82849    1.000
    N5520    N        0.81701    0.73127    0.80477    1.000
    Si5521   Si       0.85172    0.74363    0.82546    1.000
    N5522    N        0.84643    0.76542    0.86404    1.000
    N5523    N        0.93291    0.74883    0.80732    1.000
    Si5524   Si       0.90281    0.75528    0.77757    1.000
    Si5525   Si       0.97359    0.74245    0.79067    1.000
    Si5526   Si       0.93668    0.76424    0.84845    1.000
    N5527    N        0.96664    0.73107    0.74983    1.000
    N5528    N        0.89092    0.71755    0.76375    1.000
    Si5529   Si       0.84823    0.74386    0.90232    1.000
    N5530    N        0.81039    0.74445    0.92098    1.000
    N5531    N        0.73807    0.77164    0.91797    1.000
    N5532    N        0.83639    0.74875    0.99546    1.000
    N5533    N        0.88356    0.77025    0.91578    1.000
    N5534    N        0.92076    0.71552    0.94953    1.000
    Si5535   Si       0.96364    0.72856    0.95408    1.000
    N5536    N        0.92418    0.73351    0.87443    1.000
    Si5537   Si       0.91799    0.74384    0.91576    1.000
    N5538    N        0.95181    0.76584    0.93195    1.000
    Si5539   Si       0.81186    0.82070    0.04746    1.000
    N5540    N        0.84394    0.81671    0.01949    1.000
    N5541    N        0.80290    0.77846    0.06016    1.000
    N5542    N        0.74173    0.78214    0.02340    1.000
    Si5543   Si       0.76176    0.81189    0.99788    1.000
    N5544    N        0.92017    0.78457    0.09253    1.000
    Si5545   Si       0.92990    0.82213    0.07187    1.000
    N5546    N        0.93769    0.81901    0.02849    1.000
    Si5547   Si       0.89240    0.82687    0.01912    1.000
    Si5548   Si       0.97545    0.82869    0.00856    1.000
    N5549    N        0.84195    0.79385    0.18475    1.000
    Si5550   Si       0.80952    0.80891    0.20917    1.000
    Si5551   Si       0.76635    0.78784    0.15403    1.000
    N5552    N        0.76780    0.79998    0.19586    1.000
    Si5553   Si       0.83416    0.80227    0.14211    1.000
    N5554    N        0.79339    0.81593    0.13481    1.000
    Si5555   Si       0.88131    0.78246    0.19674    1.000
    N5556    N        0.90725    0.79284    0.16149    1.000
    Si5557   Si       0.95033    0.77897    0.15990    1.000
    N5558    N        0.90303    0.79800    0.23212    1.000
    N5559    N        0.97473    0.81461    0.16445    1.000
    N5560    N        0.77001    0.80394    0.31661    1.000
    Si5561   Si       0.79638    0.81500    0.28370    1.000
    N5562    N        0.80224    0.79304    0.24924    1.000
    N5563    N        0.83547    0.83198    0.29467    1.000
    Si5564   Si       0.87053    0.77980    0.36301    1.000
    N5565    N        0.89011    0.79671    0.32880    1.000
    Si5566   Si       0.96307    0.81041    0.34322    1.000
    N5567    N        0.97128    0.78553    0.30804    1.000
    N5568    N        0.83265    0.80342    0.37119    1.000
    N5569    N        0.81360    0.81724    0.47186    1.000
    N5570    N        0.75972    0.80709    0.38279    1.000
    N5571    N        0.76229    0.78637    0.47552    1.000
    Si5572   Si       0.79631    0.78202    0.38494    1.000
    Si5573   Si       0.77163    0.82907    0.47830    1.000
    Si5574   Si       0.80201    0.77618    0.46341    1.000
    N5575    N        0.98431    0.80044    0.48833    1.000
    Si5576   Si       0.96589    0.77666    0.45522    1.000
    N5577    N        0.93680    0.80846    0.44450    1.000
    Si5578   Si       0.92339    0.80796    0.40413    1.000
    N5579    N        0.89302    0.77714    0.39973    1.000
    N5580    N        0.95575    0.78813    0.37958    1.000
    Si5581   Si       0.83578    0.81532    0.56540    1.000
    N5582    N        0.81775    0.77563    0.55973    1.000
    N5583    N        0.85346    0.83024    0.52594    1.000
    N5584    N        0.92230    0.81428    0.51163    1.000
    N5585    N        0.87663    0.80423    0.57782    1.000
    Si5586   Si       0.95938    0.79329    0.52430    1.000
    Si5587   Si       0.88799    0.80349    0.53502    1.000
    N5588    N        0.97394    0.81074    0.56305    1.000
    N5589    N        0.93759    0.78439    0.61187    1.000
    Si5590   Si       0.89587    0.77563    0.60413    1.000
    Si5591   Si       0.96505    0.77083    0.58093    1.000
    N5592    N        0.79125    0.78613    0.62050    1.000
    Si5593   Si       0.78619    0.82845    0.62024    1.000
    N5594    N        0.78661    0.79513    0.71156    1.000
    Si5595   Si       0.82426    0.77894    0.69716    1.000
    N5596    N        0.86443    0.79160    0.70462    1.000
    Si5597   Si       0.88504    0.81306    0.73783    1.000
    Si5598   Si       0.95037    0.81320    0.64145    1.000
    Si5599   Si       0.89794    0.78050    0.67757    1.000
    N5600    N        0.91443    0.81897    0.66441    1.000
    N5601    N        0.80513    0.79781    0.80596    1.000
    Si5602   Si       0.84832    0.80916    0.80129    1.000
    N5603    N        0.85138    0.82488    0.76181    1.000
    N5604    N        0.74116    0.80887    0.85476    1.000
    N5605    N        0.91055    0.79902    0.85376    1.000
    N5606    N        0.91703    0.78305    0.74728    1.000
    N5607    N        0.98088    0.77109    0.85070    1.000
    N5608    N        0.98899    0.78220    0.78879    1.000
    N5609    N        0.86919    0.77296    0.79829    1.000
    N5610    N        0.79505    0.81057    0.90538    1.000
    Si5611   Si       0.82764    0.79070    0.98595    1.000
    N5612    N        0.78672    0.79000    0.97080    1.000
    N5613    N        0.84643    0.80968    0.95413    1.000
    Si5614   Si       0.77990    0.77837    0.92955    1.000
    N5615    N        0.85912    0.83057    0.89211    1.000
    N5616    N        0.89449    0.78555    0.99463    1.000
    N5617    N        0.98491    0.80943    0.97030    1.000
    N5618    N        0.91631    0.82456    0.94474    1.000
    Si5619   Si       0.95491    0.80876    0.93691    1.000
    Si5620   Si       0.88667    0.79577    0.95279    1.000
    Si5621   Si       0.87626    0.79405    0.87837    1.000
    Si5622   Si       0.79265    0.85123    0.10960    1.000
    N5623    N        0.75491    0.86437    0.09277    1.000
    N5624    N        0.82272    0.84203    0.08077    1.000
    Si5625   Si       0.74932    0.86509    0.04720    1.000
    N5626    N        0.77869    0.83888    0.02965    1.000
    Si5627   Si       0.86207    0.85355    0.09141    1.000
    N5628    N        0.79944    0.89333    0.11984    1.000
    N5629    N        0.96289    0.83736    0.09477    1.000
    N5630    N        0.89171    0.83992    0.06339    1.000
    N5631    N        0.97583    0.87195    0.00030    1.000
    N5632    N        0.90314    0.86326    0.99779    1.000
    N5633    N        0.81209    0.85214    0.20800    1.000
    Si5634   Si       0.85019    0.87615    0.20758    1.000
    N5635    N        0.75681    0.88913    0.16755    1.000
    Si5636   Si       0.79109    0.89020    0.19356    1.000
    N5637    N        0.86560    0.83290    0.13051    1.000
    N5638    N        0.93818    0.86876    0.22725    1.000
    Si5639   Si       0.96517    0.84689    0.13717    1.000
    Si5640   Si       0.89686    0.83423    0.15938    1.000
    Si5641   Si       0.92195    0.88532    0.18952    1.000
    Si5642   Si       0.97950    0.87058    0.24069    1.000
    N5643    N        0.92937    0.86182    0.15359    1.000
    Si5644   Si       0.90608    0.84110    0.23794    1.000
    N5645    N        0.88488    0.85251    0.19760    1.000
    N5646    N        0.79717    0.85751    0.34852    1.000
    N5647    N        0.77874    0.85564    0.27632    1.000
    Si5648   Si       0.80656    0.86677    0.30795    1.000
    Si5649   Si       0.75436    0.87745    0.24925    1.000
    Si5650   Si       0.83618    0.84611    0.36438    1.000
    Si5651   Si       0.76119    0.83359    0.34565    1.000
    N5652    N        0.87165    0.86440    0.34135    1.000
    N5653    N        0.90322    0.85064    0.28117    1.000
    N5654    N        0.97785    0.84682    0.27736    1.000
    Si5655   Si       0.94242    0.86330    0.29747    1.000
    N5656    N        0.93929    0.84640    0.33901    1.000
    Si5657   Si       0.91150    0.86767    0.36282    1.000
    Si5658   Si       0.87540    0.83315    0.30979    1.000
    N5659    N        0.83936    0.86448    0.40241    1.000
    N5660    N        0.76565    0.86131    0.45076    1.000
    N5661    N        0.82685    0.88323    0.48343    1.000
    Si5662   Si       0.84426    0.84267    0.48442    1.000
    N5663    N        0.90573    0.84915    0.40082    1.000
    N5664    N        0.97624    0.88165    0.39449    1.000
    N5665    N        0.88030    0.84273    0.46213    1.000
    Si5666   Si       0.87562    0.86828    0.42728    1.000
    Si5667   Si       0.92085    0.83578    0.47497    1.000
    N5668    N        0.94377    0.87236    0.46770    1.000
    N5669    N        0.81481    0.84367    0.59105    1.000
    N5670    N        0.75639    0.84553    0.51457    1.000
    N5671    N        0.74845    0.84635    0.60985    1.000
    Si5672   Si       0.81157    0.88652    0.58689    1.000
    Si5673   Si       0.75971    0.88813    0.52259    1.000
    Si5674   Si       0.97364    0.84956    0.57897    1.000
    N5675    N        0.93986    0.87123    0.55889    1.000
    N5676    N        0.82186    0.86077    0.71531    1.000
    N5677    N        0.75285    0.85405    0.72237    1.000
    Si5678   Si       0.82771    0.87717    0.67338    1.000
    N5679    N        0.79691    0.84602    0.65960    1.000
    Si5680   Si       0.78766    0.83884    0.70239    1.000
    Si5681   Si       0.74735    0.88644    0.62335    1.000
    N5682    N        0.96129    0.85019    0.62088    1.000
    N5683    N        0.89646    0.85325    0.72337    1.000
    N5684    N        0.93412    0.88305    0.67695    1.000
    N5685    N        0.86601    0.87599    0.65660    1.000
    Si5686   Si       0.89855    0.85734    0.67975    1.000
    Si5687   Si       0.94653    0.88831    0.63500    1.000
    N5688    N        0.79328    0.85848    0.84830    1.000
    N5689    N        0.79374    0.86262    0.77694    1.000
    Si5690   Si       0.75078    0.86483    0.76448    1.000
    Si5691   Si       0.83206    0.86272    0.75531    1.000
    Si5692   Si       0.78360    0.83445    0.80907    1.000
    N5693    N        0.74268    0.83203    0.79303    1.000
    Si5694   Si       0.96443    0.86112    0.79089    1.000
    Si5695   Si       0.87093    0.85987    0.86317    1.000
    N5696    N        0.92101    0.86251    0.78922    1.000
    N5697    N        0.86882    0.83799    0.82703    1.000
    N5698    N        0.98424    0.84587    0.75659    1.000
    Si5699   Si       0.89772    0.88197    0.75652    1.000
    Si5700   Si       0.91631    0.83919    0.82828    1.000
    N5701    N        0.91433    0.87050    0.86522    1.000
    N5702    N        0.96075    0.83531    0.82619    1.000
    N5703    N        0.80470    0.86707    0.94015    1.000
    Si5704   Si       0.75980    0.86742    0.94245    1.000
    Si5705   Si       0.77162    0.83501    0.87782    1.000
    N5706    N        0.74541    0.85804    0.90240    1.000
    Si5707   Si       0.82914    0.83468    0.92346    1.000
    N5708    N        0.74015    0.84189    0.97264    1.000
    Si5709   Si       0.90649    0.86615    0.95500    1.000
    N5710    N        0.87063    0.88472    0.93872    1.000
    N5711    N        0.97021    0.83552    0.90569    1.000
    Si5712   Si       0.94845    0.86941    0.89416    1.000
    N5713    N        0.93739    0.88705    0.93270    1.000
    Si5714   Si       0.82988    0.92063    0.10463    1.000
    Si5715   Si       0.77010    0.93428    0.06688    1.000
    N5716    N        0.81109    0.92918    0.06579    1.000
    N5717    N        0.75444    0.90828    0.03639    1.000
    Si5718   Si       0.83072    0.93722    0.02768    1.000
    N5719    N        0.74495    0.93687    0.10133    1.000
    Si5720   Si       0.93716    0.88991    0.01315    1.000
    N5721    N        0.86482    0.89601    0.09289    1.000
    Si5722   Si       0.89477    0.91931    0.07269    1.000
    N5723    N        0.93095    0.90279    0.05271    1.000
    Si5724   Si       0.95051    0.93778    0.07337    1.000
    N5725    N        0.87349    0.94394    0.04308    1.000
    N5726    N        0.91598    0.94482    0.10016    1.000
    N5727    N        0.98860    0.93729    0.09172    1.000
    Si5728   Si       0.75391    0.89861    0.12443    1.000
    N5729    N        0.83026    0.90545    0.18352    1.000
    N5730    N        0.78073    0.90794    0.23258    1.000
    Si5731   Si       0.85771    0.93365    0.16578    1.000
    N5732    N        0.84081    0.95104    0.13074    1.000
    Si5733   Si       0.79985    0.94534    0.24079    1.000
    N5734    N        0.86930    0.89925    0.23875    1.000
    N5735    N        0.95979    0.91198    0.18672    1.000
    Si5736   Si       0.87698    0.94200    0.22040    1.000
    N5737    N        0.89648    0.92193    0.18138    1.000
    Si5738   Si       0.93227    0.94579    0.19000    1.000
    N5739    N        0.83000    0.90104    0.30300    1.000
    Si5740   Si       0.85696    0.91790    0.27436    1.000
    N5741    N        0.84476    0.92864    0.36450    1.000
    Si5742   Si       0.86097    0.90540    0.33225    1.000
    Si5743   Si       0.92759    0.93012    0.32463    1.000
    N5744    N        0.88744    0.92641    0.30500    1.000
    N5745    N        0.95433    0.90561    0.30123    1.000
    N5746    N        0.92216    0.90963    0.36312    1.000
    Si5747   Si       0.79392    0.89406    0.45611    1.000
    N5748    N        0.80228    0.92416    0.42361    1.000
    Si5749   Si       0.83853    0.90937    0.40300    1.000
    N5750    N        0.77591    0.91571    0.48993    1.000
    N5751    N        0.87272    0.91108    0.42946    1.000
    N5752    N        0.93199    0.92806    0.43129    1.000
    Si5753   Si       0.95595    0.91144    0.46189    1.000
    Si5754   Si       0.89397    0.94452    0.44317    1.000
    Si5755   Si       0.95170    0.91784    0.39385    1.000
    N5756    N        0.85071    0.90695    0.59077    1.000
    Si5757   Si       0.81439    0.91318    0.51354    1.000
    N5758    N        0.83893    0.94454    0.52868    1.000
    N5759    N        0.78667    0.90522    0.61831    1.000
    N5760    N        0.79430    0.89584    0.54749    1.000
    Si5761   Si       0.86446    0.94002    0.56462    1.000
    N5762    N        0.97397    0.92937    0.56689    1.000
    Si5763   Si       0.93406    0.91166    0.57192    1.000
    N5764    N        0.90292    0.93296    0.54834    1.000
    N5765    N        0.91538    0.90510    0.61085    1.000
    N5766    N        0.95247    0.92961    0.49967    1.000
    Si5767   Si       0.98621    0.93548    0.52590    1.000
    Si5768   Si       0.79128    0.94062    0.64492    1.000
    N5769    N        0.81259    0.91871    0.67941    1.000
    N5770    N        0.73857    0.94374    0.71686    1.000
    Si5771   Si       0.82495    0.94888    0.70889    1.000
    Si5772   Si       0.94370    0.91414    0.70704    1.000
    Si5773   Si       0.87424    0.90919    0.62682    1.000
    N5774    N        0.97587    0.92031    0.63257    1.000
    N5775    N        0.93393    0.94645    0.68119    1.000
    N5776    N        0.87005    0.95054    0.64345    1.000
    Si5777   Si       0.83778    0.93166    0.78082    1.000
    N5778    N        0.81427    0.92022    0.81576    1.000
    Si5779   Si       0.77509    0.93908    0.83004    1.000
    Si5780   Si       0.81348    0.89610    0.85202    1.000
    N5781    N        0.85836    0.89694    0.76496    1.000
    N5782    N        0.81108    0.95225    0.75212    1.000
    N5783    N        0.98013    0.90175    0.79071    1.000
    Si5784   Si       0.95013    0.93152    0.78181    1.000
    Si5785   Si       0.92980    0.91644    0.85900    1.000
    N5786    N        0.93388    0.93847    0.82128    1.000
    N5787    N        0.92304    0.92151    0.74591    1.000
    N5788    N        0.85026    0.89565    0.87130    1.000
    N5789    N        0.78663    0.92642    0.87054    1.000
    N5790    N        0.83188    0.93198    0.92354    1.000
    Si5791   Si       0.83208    0.89954    0.95276    1.000
    Si5792   Si       0.74124    0.94675    0.94276    1.000
    N5793    N        0.83006    0.91053    0.99523    1.000
    N5794    N        0.96814    0.90274    0.87118    1.000
    N5795    N        0.90203    0.93463    0.88694    1.000
    Si5796   Si       0.95192    0.92394    0.94909    1.000
    N5797    N        0.93391    0.92789    0.98932    1.000
    Si5798   Si       0.86751    0.91636    0.90505    1.000
    N5799    N        0.76354    0.97489    0.04970    1.000
    N5800    N        0.82623    0.98036    0.02264    1.000
    Si5801   Si       0.79965    0.99744    0.05215    1.000
    N5802    N        0.81935    0.00401    0.09288    1.000
    N5803    N        0.94395    0.96965    0.04403    1.000
    Si5804   Si       0.86899    0.98364    0.03107    1.000
    Si5805   Si       0.93257    0.96716    0.00408    1.000
    N5806    N        0.94354    0.00777    0.09900    1.000
    Si5807   Si       0.95947    0.00794    0.05940    1.000
    Si5808   Si       0.83765    0.99288    0.13177    1.000
    N5809    N        0.85738    0.96760    0.19178    1.000
    Si5810   Si       0.75980    0.99692    0.23376    1.000
    Si5811   Si       0.82474    0.99463    0.20236    1.000
    N5812    N        0.78785    0.97331    0.20882    1.000
    N5813    N        0.87768    0.00743    0.12062    1.000
    N5814    N        0.93138    0.97715    0.15969    1.000
    N5815    N        0.91608    0.95792    0.22889    1.000
    Si5816   Si       0.91418    0.98217    0.12025    1.000
    N5817    N        0.98519    0.99899    0.19431    1.000
    Si5818   Si       0.78238    0.99025    0.30635    1.000
    N5819    N        0.77406    0.97117    0.27011    1.000
    N5820    N        0.74905    0.98871    0.33664    1.000
    N5821    N        0.82399    0.98409    0.31279    1.000
    Si5822   Si       0.83924    0.97328    0.35344    1.000
    Si5823   Si       0.84617    0.99145    0.27350    1.000
    N5824    N        0.84003    0.95104    0.25284    1.000
    N5825    N        0.94208    0.97122    0.32512    1.000
    N5826    N        0.88140    0.98670    0.35073    1.000
    Si5827   Si       0.97698    0.98827    0.30330    1.000
    N5828    N        0.88904    0.99667    0.28066    1.000
    Si5829   Si       0.90772    0.99840    0.31983    1.000
    N5830    N        0.95977    0.00069    0.26580    1.000
    Si5831   Si       0.96471    0.98414    0.36322    1.000
    Si5832   Si       0.92086    0.99605    0.24844    1.000
    N5833    N        0.76878    0.98733    0.43904    1.000
    Si5834   Si       0.78205    0.99393    0.47884    1.000
    N5835    N        0.81948    0.97373    0.47014    1.000
    Si5836   Si       0.80728    0.96871    0.42542    1.000
    N5837    N        0.81718    0.98460    0.38868    1.000
    Si5838   Si       0.89665    0.00413    0.38835    1.000
    N5839    N        0.97768    0.95083    0.38785    1.000
    N5840    N        0.88733    0.95623    0.48402    1.000
    N5841    N        0.97006    0.99174    0.44765    1.000
    N5842    N        0.88336    0.97740    0.41842    1.000
    Si5843   Si       0.97404    0.99872    0.49016    1.000
    Si5844   Si       0.77761    0.99681    0.59412    1.000
    N5845    N        0.74920    0.97983    0.50324    1.000
    N5846    N        0.74522    0.97455    0.57708    1.000
    N5847    N        0.80403    0.97383    0.61909    1.000
    N5848    N        0.86172    0.97883    0.58173    1.000
    Si5849   Si       0.84995    0.97221    0.49746    1.000
    N5850    N        0.94009    0.99370    0.51811    1.000
    Si5851   Si       0.91846    0.95487    0.51314    1.000
    Si5852   Si       0.84610    0.98214    0.62211    1.000
    Si5853   Si       0.76186    0.98169    0.71022    1.000
    N5854    N        0.80312    0.98103    0.69211    1.000
    N5855    N        0.74697    0.95075    0.64433    1.000
    N5856    N        0.95686    0.99515    0.62613    1.000
    N5857    N        0.90893    0.00430    0.67516    1.000
    N5858    N        0.91115    0.99354    0.74079    1.000
    N5859    N        0.86917    0.95213    0.71029    1.000
    Si5860   Si       0.96243    0.95988    0.65105    1.000
    Si5861   Si       0.89441    0.96278    0.67785    1.000
    Si5862   Si       0.89268    0.95485    0.74767    1.000
    N5863    N        0.78003    0.97802    0.81082    1.000
    Si5864   Si       0.79712    0.98615    0.77284    1.000
    N5865    N        0.74843    0.99508    0.87102    1.000
    N5866    N        0.76522    0.00153    0.74785    1.000
    N5867    N        0.86893    0.96453    0.78249    1.000
    N5868    N        0.96549    0.97247    0.77408    1.000
    Si5869   Si       0.95382    0.97860    0.82908    1.000
    N5870    N        0.92953    0.99287    0.86314    1.000
    N5871    N        0.73698    0.96232    0.98340    1.000
    Si5872   Si       0.80369    0.95284    0.90059    1.000
    N5873    N        0.77542    0.96958    0.92930    1.000
    N5874    N        0.82341    0.98537    0.88234    1.000
    N5875    N        0.90234    0.00427    0.92486    1.000
    N5876    N        0.95634    0.95717    0.91942    1.000
    N5877    N        0.95068    0.99777    0.97820    1.000
    Si5878   Si       0.91970    0.97237    0.90026    1.000
    N5879    N        0.89125    0.98077    0.99368    1.000
