# CIF file generated by openbabel 3.1.1, see https://openbabel.org
data_I
_chemical_name_common '3.01-45.aims'
_cell_length_a 39.9774
_cell_length_b 39.9774
_cell_length_c 39.9774
_cell_angle_alpha 90
_cell_angle_beta 90
_cell_angle_gamma 90
loop_
    _atom_site_label
    _atom_site_type_symbol
    _atom_site_fract_x
    _atom_site_fract_y
    _atom_site_fract_z
    _atom_site_occupancy
    Si0      Si       0.02525    0.01716    0.00521    1.000
    Si1      Si       0.10664    0.03534    0.08222    1.000
    N2       N        0.99388    0.03152    0.03351    1.000
    Si3      Si       0.17564    0.05183    0.07556    1.000
    N4       N        0.21389    0.03221    0.07557    1.000
    N5       N        0.14432    0.02370    0.06256    1.000
    Si6      Si       0.15203    0.00638    0.02312    1.000
    N7       N        0.10702    0.04759    0.12255    1.000
    N8       N        0.04187    0.04513    0.13140    1.000
    N9       N        0.08028    0.05146    0.19049    1.000
    N10      N        0.01760    0.03613    0.20123    1.000
    Si11     Si       0.09341    0.03653    0.22937    1.000
    Si12     Si       0.08222    0.02629    0.15208    1.000
    Si13     Si       0.14647    0.02079    0.18727    1.000
    N14      N        0.13419    0.02281    0.22653    1.000
    N15      N        0.21877    0.05706    0.22052    1.000
    Si16     Si       0.21723    0.02679    0.18906    1.000
    N17      N        0.15524    0.05718    0.16957    1.000
    N18      N        0.22512    0.04894    0.15229    1.000
    Si19     Si       0.01657    0.02273    0.32388    1.000
    N20      N        0.04955    0.02378    0.35286    1.000
    N21      N        0.02855    0.05114    0.29511    1.000
    Si22     Si       0.08080    0.05206    0.35425    1.000
    N23      N        0.12691    0.02325    0.29164    1.000
    Si24     Si       0.21136    0.05539    0.33546    1.000
    N25      N        0.11796    0.03035    0.36375    1.000
    N26      N        0.20950    0.01265    0.33627    1.000
    Si27     Si       0.23593    0.05102    0.26121    1.000
    Si28     Si       0.01155    0.05777    0.47153    1.000
    N29      N        0.09390    0.04127    0.42929    1.000
    N30      N        0.03570    0.02360    0.46408    1.000
    Si31     Si       0.06492    0.01035    0.43524    1.000
    Si32     Si       0.17979    0.02981    0.44850    1.000
    Si33     Si       0.11974    0.01287    0.40581    1.000
    N34      N        0.15707    0.03678    0.41347    1.000
    Si35     Si       0.14649    0.06192    0.38110    1.000
    N36      N        0.15470    0.02386    0.48317    1.000
    N37      N        0.21558    0.05280    0.45661    1.000
    N38      N        0.08967    0.04339    0.51258    1.000
    Si39     Si       0.07575    0.04758    0.58920    1.000
    N40      N        0.08532    0.00929    0.57083    1.000
    Si41     Si       0.15026    0.03936    0.66745    1.000
    N42      N        0.21221    0.05085    0.53015    1.000
    Si43     Si       0.17752    0.05445    0.55327    1.000
    N44      N        0.16055    0.01253    0.55790    1.000
    Si45     Si       0.12695    0.05399    0.49510    1.000
    N46      N        0.06228    0.02538    0.62215    1.000
    Si47     Si       0.09811    0.05466    0.71684    1.000
    N48      N        0.06683    0.05265    0.68785    1.000
    Si49     Si       0.05608    0.01646    0.66484    1.000
    N50      N        0.01298    0.01117    0.66720    1.000
    N51      N        0.14232    0.02539    0.62752    1.000
    Si52     Si       0.20661    0.04978    0.71302    1.000
    N53      N        0.18729    0.02184    0.74234    1.000
    N54      N        0.19142    0.02898    0.67683    1.000
    N55      N        0.12919    0.02711    0.70274    1.000
    Si56     Si       0.21463    0.00895    0.64393    1.000
    Si57     Si       0.09596    0.04611    0.80040    1.000
    N58      N        0.06043    0.02491    0.81127    1.000
    Si59     Si       0.01847    0.03904    0.81387    1.000
    N60      N        0.00694    0.02358    0.85219    1.000
    N61      N        0.99637    0.02041    0.78348    1.000
    N62      N        0.09328    0.06217    0.75826    1.000
    Si63     Si       0.20562    0.01620    0.78251    1.000
    N64      N        0.13808    0.03413    0.80855    1.000
    N65      N        0.20573    0.05153    0.80517    1.000
    Si66     Si       0.16931    0.05781    0.83031    1.000
    Si67     Si       0.03563    0.04047    0.87881    1.000
    N68      N        0.01883    0.04045    0.91923    1.000
    N69      N        0.08342    0.03216    0.94623    1.000
    Si70     Si       0.10177    0.02898    0.90659    1.000
    N71      N        0.07320    0.01652    0.87532    1.000
    Si72     Si       0.04859    0.05579    0.95133    1.000
    N73      N        0.02885    0.05805    0.98936    1.000
    N74      N        0.19184    0.04066    0.94600    1.000
    N75      N        0.17530    0.04396    0.87020    1.000
    Si76     Si       0.18308    0.02107    0.90497    1.000
    N77      N        0.14181    0.01280    0.91846    1.000
    N78      N        0.13486    0.02694    0.99038    1.000
    Si79     Si       0.14851    0.04487    0.95174    1.000
    N80      N        0.01785    0.09150    0.05694    1.000
    Si81     Si       0.05916    0.10037    0.06359    1.000
    N82      N        0.06314    0.10737    0.10625    1.000
    N83      N        0.09268    0.07150    0.05749    1.000
    Si84     Si       0.00184    0.07183    0.02193    1.000
    Si85     Si       0.99262    0.11382    0.08600    1.000
    N86      N        0.11615    0.12076    0.00849    1.000
    N87      N        0.16503    0.08397    0.04769    1.000
    N88      N        0.17042    0.07858    0.11241    1.000
    Si89     Si       0.12402    0.09967    0.04488    1.000
    Si90     Si       0.19606    0.10845    0.02898    1.000
    N91      N        0.22063    0.10135    0.06563    1.000
    Si92     Si       0.17350    0.11613    0.08546    1.000
    Si93     Si       0.04319    0.07207    0.19783    1.000
    N94      N        0.99730    0.09926    0.12514    1.000
    N95      N        0.04447    0.10618    0.17165    1.000
    Si96     Si       0.03788    0.08740    0.13369    1.000
    N97      N        0.02704    0.09356    0.23394    1.000
    Si98     Si       0.19050    0.07370    0.15046    1.000
    N99      N        0.19884    0.10965    0.17284    1.000
    N100     N        0.12361    0.11561    0.14698    1.000
    Si101    Si       0.21665    0.09972    0.21187    1.000
    Si102    Si       0.13312    0.07504    0.13971    1.000
    Si103    Si       0.04519    0.08390    0.27217    1.000
    Si104    Si       0.07087    0.10906    0.33466    1.000
    N105     N        0.09759    0.07895    0.32227    1.000
    N106     N        0.04463    0.11807    0.30113    1.000
    N107     N        0.08373    0.06759    0.25758    1.000
    Si108    Si       0.11732    0.06454    0.28685    1.000
    N109     N        0.14828    0.09194    0.27372    1.000
    Si110    Si       0.18937    0.10092    0.28313    1.000
    N111     N        0.17944    0.07458    0.35631    1.000
    Si112    Si       0.18599    0.11847    0.35787    1.000
    N113     N        0.21209    0.06645    0.29321    1.000
    N114     N        0.05738    0.08696    0.37253    1.000
    N115     N        0.01311    0.07822    0.43256    1.000
    Si116    Si       0.03991    0.10322    0.40816    1.000
    Si117    Si       0.10592    0.08250    0.43412    1.000
    N118     N        0.07301    0.11127    0.43391    1.000
    N119     N        0.21954    0.11674    0.49199    1.000
    N120     N        0.12321    0.08988    0.47307    1.000
    N121     N        0.12493    0.09416    0.39727    1.000
    Si122    Si       0.22337    0.07373    0.49316    1.000
    N123     N        0.08822    0.11493    0.53116    1.000
    Si124    Si       0.06582    0.07770    0.52334    1.000
    N125     N        0.02565    0.08035    0.50657    1.000
    Si126    Si       0.08245    0.11312    0.60958    1.000
    N127     N        0.10584    0.07771    0.59677    1.000
    Si128    Si       0.00936    0.08124    0.54778    1.000
    Si129    Si       0.00618    0.09935    0.61538    1.000
    N130     N        0.14877    0.07641    0.52639    1.000
    Si131    Si       0.12667    0.11080    0.51263    1.000
    N132     N        0.18208    0.07295    0.59116    1.000
    Si133    Si       0.22080    0.08083    0.61555    1.000
    Si134    Si       0.14582    0.06812    0.61352    1.000
    N135     N        0.04863    0.06807    0.56234    1.000
    N136     N        0.04700    0.09303    0.62972    1.000
    Si137    Si       0.04448    0.08654    0.67208    1.000
    N138     N        0.00184    0.07556    0.68129    1.000
    N139     N        0.02103    0.10489    0.74433    1.000
    Si140    Si       0.13326    0.11508    0.67513    1.000
    Si141    Si       0.20223    0.12033    0.69016    1.000
    N142     N        0.21891    0.10584    0.65066    1.000
    N143     N        0.11829    0.09387    0.70974    1.000
    N144     N        0.19785    0.09221    0.72213    1.000
    N145     N        0.14988    0.08134    0.65449    1.000
    N146     N        0.99330    0.11090    0.57424    1.000
    Si147    Si       0.99178    0.10098    0.71319    1.000
    Si148    Si       0.01238    0.10332    0.84717    1.000
    N149     N        0.00491    0.08268    0.80909    1.000
    N150     N        0.10177    0.08391    0.82362    1.000
    Si151    Si       0.08657    0.08791    0.86231    1.000
    N152     N        0.04337    0.07912    0.86278    1.000
    Si153    Si       0.10973    0.10249    0.75107    1.000
    N154     N        0.16924    0.10235    0.83478    1.000
    N155     N        0.14595    0.11085    0.77248    1.000
    Si156    Si       0.18796    0.11447    0.76004    1.000
    N157     N        0.22200    0.11589    0.78831    1.000
    Si158    Si       0.13261    0.11255    0.81546    1.000
    N159     N        0.23146    0.09554    0.85418    1.000
    Si160    Si       0.23589    0.08145    0.81079    1.000
    N161     N        0.06279    0.09675    0.94447    1.000
    Si162    Si       0.10030    0.10634    0.92193    1.000
    N163     N        0.10750    0.07072    0.89528    1.000
    N164     N        0.99533    0.10292    0.93966    1.000
    N165     N        0.20759    0.09510    0.99133    1.000
    N166     N        0.21927    0.10620    0.91914    1.000
    N167     N        0.13868    0.08855    0.94982    1.000
    Si168    Si       0.21178    0.07899    0.95233    1.000
    Si169    Si       0.98786    0.10043    0.77207    1.000
    Si170    Si       0.03159    0.12589    0.94810    1.000
    Si171    Si       0.13601    0.12627    0.97127    1.000
    Si172    Si       0.09437    0.15659    0.02025    1.000
    N173     N        0.09061    0.16902    0.11012    1.000
    N174     N        0.00761    0.15471    0.08697    1.000
    N175     N        0.06364    0.14209    0.04849    1.000
    Si176    Si       0.03625    0.17594    0.06118    1.000
    Si177    Si       0.09912    0.12836    0.11567    1.000
    Si178    Si       0.16272    0.17829    0.02561    1.000
    N179     N        0.18414    0.14682    0.04629    1.000
    Si180    Si       0.22239    0.15106    0.07189    1.000
    N181     N        0.19833    0.14357    0.10799    1.000
    Si182    Si       0.12506    0.17416    0.08176    1.000
    N183     N        0.12916    0.12924    0.07872    1.000
    Si184    Si       0.03432    0.14684    0.18469    1.000
    N185     N        0.05385    0.16404    0.22005    1.000
    N186     N        0.03632    0.17631    0.15044    1.000
    Si187    Si       0.09498    0.17204    0.21122    1.000
    N188     N        0.99340    0.14847    0.20063    1.000
    N189     N        0.10172    0.17698    0.17026    1.000
    Si190    Si       0.00315    0.18019    0.12317    1.000
    Si191    Si       0.20687    0.14722    0.14962    1.000
    N192     N        0.17096    0.17113    0.16184    1.000
    Si193    Si       0.20602    0.16777    0.24223    1.000
    N194     N        0.12733    0.13995    0.21538    1.000
    Si195    Si       0.13574    0.14980    0.17335    1.000
    N196     N        0.19593    0.12398    0.24359    1.000
    Si197    Si       0.01569    0.15194    0.30252    1.000
    N198     N        0.08681    0.14414    0.35656    1.000
    N199     N        0.99783    0.16668    0.26746    1.000
    N200     N        0.14400    0.16255    0.27593    1.000
    Si201    Si       0.17649    0.16753    0.30373    1.000
    N202     N        0.18921    0.12800    0.31591    1.000
    N203     N        0.21158    0.18248    0.28249    1.000
    N204     N        0.22412    0.13357    0.37284    1.000
    Si205    Si       0.02756    0.17782    0.41179    1.000
    N206     N        0.01811    0.13910    0.39614    1.000
    Si207    Si       0.08244    0.14918    0.44899    1.000
    N208     N        0.09387    0.16704    0.48632    1.000
    N209     N        0.04661    0.17379    0.44926    1.000
    N210     N        0.15786    0.14783    0.37397    1.000
    Si211    Si       0.23532    0.16820    0.39429    1.000
    N212     N        0.10897    0.16498    0.41844    1.000
    Si213    Si       0.11740    0.13575    0.38710    1.000
    N214     N        0.23817    0.16038    0.43604    1.000
    N215     N        0.20343    0.18254    0.48864    1.000
    Si216    Si       0.14937    0.12762    0.24941    1.000
    N217     N        0.05921    0.14263    0.58853    1.000
    Si218    Si       0.07392    0.15571    0.55005    1.000
    N219     N        0.04011    0.17594    0.52758    1.000
    Si220    Si       0.03051    0.16029    0.61451    1.000
    N221     N        0.15108    0.14581    0.51371    1.000
    N222     N        0.21178    0.15781    0.54852    1.000
    Si223    Si       0.19344    0.14598    0.51010    1.000
    N224     N        0.23134    0.16655    0.61882    1.000
    Si225    Si       0.12449    0.18012    0.51353    1.000
    Si226    Si       0.04734    0.13563    0.73361    1.000
    N227     N        0.99961    0.13866    0.63434    1.000
    Si228    Si       0.07694    0.15162    0.66793    1.000
    N229     N        0.02632    0.17294    0.73755    1.000
    N230     N        0.10685    0.16603    0.69684    1.000
    N231     N        0.10357    0.12663    0.64540    1.000
    N232     N        0.05390    0.18104    0.64642    1.000
    N233     N        0.05329    0.12272    0.69207    1.000
    N234     N        0.16546    0.14265    0.67973    1.000
    Si235    Si       0.22807    0.17438    0.72978    1.000
    Si236    Si       0.09710    0.16496    0.78652    1.000
    N237     N        0.01556    0.14527    0.85886    1.000
    Si238    Si       0.10809    0.16381    0.86342    1.000
    N239     N        0.08178    0.13356    0.75874    1.000
    N240     N        0.11405    0.14866    0.82288    1.000
    N241     N        0.17896    0.17571    0.81670    1.000
    Si242    Si       0.20761    0.13093    0.84252    1.000
    Si243    Si       0.16934    0.18377    0.77455    1.000
    N244     N        0.19104    0.15816    0.74625    1.000
    N245     N        0.21235    0.17861    0.94253    1.000
    Si246    Si       0.08245    0.17588    0.94804    1.000
    Si247    Si       0.04908    0.15496    0.88174    1.000
    N248     N        0.04726    0.16077    0.92588    1.000
    N249     N        0.00983    0.14610    0.97999    1.000
    N250     N        0.08754    0.12716    0.88088    1.000
    N251     N        0.07218    0.17774    0.98948    1.000
    N252     N        0.11048    0.14443    0.94207    1.000
    N253     N        0.16351    0.15742    0.98336    1.000
    N254     N        0.19394    0.15271    0.87713    1.000
    Si255    Si       0.21694    0.14871    0.91284    1.000
    Si256    Si       0.02807    0.18351    0.98953    1.000
    N257     N        0.06070    0.20992    0.06265    1.000
    N258     N        0.00572    0.21723    0.10376    1.000
    Si259    Si       0.09463    0.22173    0.03929    1.000
    N260     N        0.00992    0.19036    0.02813    1.000
    Si261    Si       0.04327    0.23805    0.09092    1.000
    N262     N        0.18018    0.21337    0.00433    1.000
    N263     N        0.14775    0.20552    0.10235    1.000
    Si264    Si       0.21936    0.22850    0.08295    1.000
    N265     N        0.22878    0.19336    0.06249    1.000
    N266     N        0.12125    0.18647    0.03942    1.000
    N267     N        0.07043    0.23471    0.12779    1.000
    N268     N        0.00205    0.21359    0.21492    1.000
    Si269    Si       0.07381    0.19312    0.14027    1.000
    N270     N        0.10839    0.20867    0.22885    1.000
    Si271    Si       0.02725    0.19047    0.24410    1.000
    Si272    Si       0.17104    0.20814    0.13860    1.000
    Si273    Si       0.17645    0.23052    0.20597    1.000
    N274     N        0.15607    0.23613    0.16871    1.000
    N275     N        0.20801    0.22424    0.12474    1.000
    N276     N        0.17546    0.19595    0.23018    1.000
    Si277    Si       0.08149    0.24214    0.23524    1.000
    N278     N        0.09413    0.21041    0.32577    1.000
    Si279    Si       0.05633    0.22253    0.30375    1.000
    N280     N        0.05118    0.22295    0.26173    1.000
    N281     N        0.03855    0.18574    0.31795    1.000
    Si282    Si       0.07142    0.18275    0.35037    1.000
    Si283    Si       0.13160    0.23009    0.32054    1.000
    N284     N        0.16199    0.19955    0.32723    1.000
    Si285    Si       0.22437    0.23448    0.36134    1.000
    Si286    Si       0.14241    0.20084    0.25636    1.000
    N287     N        0.13595    0.23687    0.27911    1.000
    Si288    Si       0.16698    0.18950    0.36994    1.000
    N289     N        0.05127    0.20044    0.38469    1.000
    N290     N        0.00378    0.21896    0.48318    1.000
    Si291    Si       0.99634    0.23473    0.44400    1.000
    N292     N        0.10477    0.23752    0.44008    1.000
    Si293    Si       0.05545    0.18976    0.48892    1.000
    Si294    Si       0.12464    0.20451    0.41966    1.000
    N295     N        0.06984    0.23046    0.49563    1.000
    Si296    Si       0.17616    0.21261    0.47326    1.000
    N297     N        0.16426    0.19780    0.43522    1.000
    N298     N        0.13814    0.22009    0.38193    1.000
    N299     N        0.20953    0.19810    0.37761    1.000
    Si300    Si       0.03936    0.24215    0.38413    1.000
    Si301    Si       0.10341    0.22711    0.57020    1.000
    Si302    Si       0.01145    0.19947    0.55112    1.000
    N303     N        0.00924    0.19204    0.59352    1.000
    N304     N        0.07063    0.23456    0.59869    1.000
    N305     N        0.02153    0.24123    0.54739    1.000
    N306     N        0.10289    0.18869    0.54965    1.000
    N307     N        0.13985    0.23509    0.58778    1.000
    N308     N        0.14025    0.21581    0.49629    1.000
    N309     N        0.07832    0.22247    0.72902    1.000
    Si310    Si       0.07119    0.22086    0.64044    1.000
    Si311    Si       0.11373    0.19831    0.72497    1.000
    N312     N        0.11310    0.20926    0.65020    1.000
    Si313    Si       0.14422    0.23284    0.63109    1.000
    N314     N        0.15021    0.21112    0.70712    1.000
    Si315    Si       0.14463    0.18243    0.67219    1.000
    Si316    Si       0.21241    0.20544    0.62326    1.000
    N317     N        0.21853    0.21330    0.71277    1.000
    N318     N        0.17524    0.20433    0.64329    1.000
    Si319    Si       0.18298    0.23207    0.72463    1.000
    N320     N        0.21464    0.24107    0.59423    1.000
    Si321    Si       0.06500    0.21575    0.83025    1.000
    Si322    Si       0.04597    0.20843    0.75583    1.000
    N323     N        0.06674    0.19566    0.79157    1.000
    Si324    Si       0.99594    0.23474    0.80399    1.000
    N325     N        0.01373    0.23559    0.76340    1.000
    N326     N        0.07034    0.18617    0.86019    1.000
    N327     N        0.03030    0.24269    0.83044    1.000
    N328     N        0.18482    0.22428    0.76802    1.000
    Si329    Si       0.17789    0.18953    0.85910    1.000
    N330     N        0.21373    0.21495    0.86312    1.000
    N331     N        0.02449    0.22239    0.96788    1.000
    N332     N        0.09052    0.21630    0.93866    1.000
    Si333    Si       0.06425    0.24100    0.96539    1.000
    N334     N        0.13852    0.19234    0.87822    1.000
    Si335    Si       0.18023    0.19379    0.96487    1.000
    N336     N        0.15729    0.21827    0.94010    1.000
    Si337    Si       0.12521    0.22006    0.91294    1.000
    N338     N        0.12843    0.18374    0.76187    1.000
    N339     N        0.03892    0.27249    0.06314    1.000
    Si340    Si       0.05937    0.28359    0.02640    1.000
    N341     N        0.07625    0.24703    0.00652    1.000
    Si342    Si       0.00475    0.29830    0.07308    1.000
    N343     N        0.11927    0.25421    0.05514    1.000
    N344     N        0.15845    0.28216    0.00649    1.000
    Si345    Si       0.18626    0.25130    0.01998    1.000
    Si346    Si       0.12763    0.29162    0.03510    1.000
    N347     N        0.22816    0.26457    0.01475    1.000
    N348     N        0.14735    0.27481    0.11345    1.000
    N349     N        0.18530    0.24502    0.06419    1.000
    Si350    Si       0.14844    0.24485    0.08370    1.000
    Si351    Si       0.99756    0.29648    0.14459    1.000
    Si352    Si       0.01608    0.25565    0.21318    1.000
    Si353    Si       0.06823    0.26665    0.15692    1.000
    N354     N        0.10632    0.29002    0.16527    1.000
    N355     N        0.04014    0.29338    0.13801    1.000
    N356     N        0.05812    0.25326    0.19741    1.000
    N357     N        0.10303    0.28043    0.23572    1.000
    N358     N        0.01673    0.28520    0.24485    1.000
    N359     N        0.99346    0.27601    0.18233    1.000
    Si360    Si       0.20290    0.28526    0.20609    1.000
    N361     N        0.17639    0.26560    0.23450    1.000
    Si362    Si       0.23226    0.25254    0.14555    1.000
    Si363    Si       0.14732    0.27517    0.15644    1.000
    N364     N        0.22703    0.29357    0.13497    1.000
    N365     N        0.21507    0.24570    0.18954    1.000
    N366     N        0.03156    0.30067    0.99792    1.000
    N367     N        0.05861    0.26599    0.31141    1.000
    Si368    Si       0.07929    0.29006    0.34363    1.000
    N369     N        0.00309    0.25008    0.36283    1.000
    Si370    Si       0.03107    0.29923    0.30758    1.000
    Si371    Si       0.17882    0.27838    0.49431    1.000
    N372     N        0.13676    0.27082    0.33681    1.000
    Si373    Si       0.14060    0.27477    0.25742    1.000
    N374     N        0.23152    0.24573    0.32034    1.000
    N375     N        0.07535    0.26536    0.37774    1.000
    Si376    Si       0.09434    0.27130    0.41584    1.000
    N377     N        0.02120    0.28415    0.48542    1.000
    N378     N        0.03344    0.25044    0.42703    1.000
    Si379    Si       0.03181    0.29072    0.44332    1.000
    Si380    Si       0.11048    0.24409    0.48291    1.000
    N381     N        0.19511    0.26149    0.37802    1.000
    N382     N        0.13322    0.28847    0.40348    1.000
    N383     N        0.20097    0.24719    0.47278    1.000
    Si384    Si       0.22658    0.28906    0.39439    1.000
    Si385    Si       0.15200    0.26024    0.37449    1.000
    N386     N        0.13366    0.28093    0.48436    1.000
    Si387    Si       0.03557    0.25761    0.58719    1.000
    Si388    Si       0.03069    0.24657    0.50616    1.000
    N389     N        0.10617    0.26742    0.55203    1.000
    N390     N        0.04573    0.29839    0.57404    1.000
    Si391    Si       0.08400    0.30511    0.55517    1.000
    Si392    Si       0.15081    0.27127    0.56563    1.000
    N393     N        0.18073    0.26507    0.53583    1.000
    Si394    Si       0.21853    0.25620    0.55313    1.000
    Si395    Si       0.16994    0.30407    0.63218    1.000
    N396     N        0.23721    0.29518    0.55061    1.000
    N397     N        0.01254    0.25119    0.62373    1.000
    Si398    Si       0.01082    0.26947    0.73624    1.000
    Si399    Si       0.07797    0.26228    0.70922    1.000
    Si400    Si       0.01982    0.26724    0.66326    1.000
    N401     N        0.04726    0.29063    0.72116    1.000
    N402     N        0.06218    0.25378    0.66771    1.000
    N403     N        0.99659    0.25300    0.69629    1.000
    N404     N        0.11482    0.28563    0.70814    1.000
    N405     N        0.18184    0.27303    0.71034    1.000
    N406     N        0.13971    0.27443    0.64353    1.000
    N407     N        0.20959    0.28905    0.64557    1.000
    Si408    Si       0.14934    0.29481    0.73339    1.000
    Si409    Si       0.23693    0.26254    0.62514    1.000
    Si410    Si       0.21649    0.28968    0.68986    1.000
    N411     N        0.16208    0.30677    0.58936    1.000
    Si412    Si       0.05923    0.27553    0.84126    1.000
    N413     N        0.09213    0.25021    0.83326    1.000
    N414     N        0.99322    0.29891    0.76415    1.000
    Si415    Si       0.17890    0.25566    0.79529    1.000
    Si416    Si       0.12707    0.26629    0.85324    1.000
    N417     N        0.15648    0.28706    0.77712    1.000
    N418     N        0.21941    0.26595    0.80866    1.000
    Si419    Si       0.20749    0.25482    0.84922    1.000
    N420     N        0.16461    0.25379    0.83625    1.000
    N421     N        0.07188    0.28099    0.94721    1.000
    N422     N        0.05828    0.28998    0.88093    1.000
    Si423    Si       0.09211    0.28550    0.90949    1.000
    N424     N        0.99281    0.28825    0.88134    1.000
    N425     N        0.19504    0.30044    0.94650    1.000
    Si426    Si       0.22785    0.28445    0.92522    1.000
    N427     N        0.22211    0.28359    0.87976    1.000
    N428     N        0.12240    0.25939    0.89493    1.000
    N429     N        0.05419    0.30551    0.81130    1.000
    N430     N        0.02585    0.33286    0.08519    1.000
    N431     N        0.09273    0.32192    0.09968    1.000
    Si432    Si       0.09728    0.34666    0.06080    1.000
    N433     N        0.09097    0.31132    0.03030    1.000
    Si434    Si       0.05321    0.32832    0.11829    1.000
    N435     N        0.12916    0.34581    0.20863    1.000
    N436     N        0.17307    0.30198    0.18003    1.000
    N437     N        0.22303    0.31457    0.06943    1.000
    Si438    Si       0.18910    0.33771    0.05276    1.000
    N439     N        0.14790    0.32035    0.06225    1.000
    Si440    Si       0.13604    0.31568    0.10484    1.000
    N441     N        0.18748    0.34378    0.01045    1.000
    Si442    Si       0.23568    0.32730    0.11027    1.000
    N443     N        0.06381    0.33122    0.20596    1.000
    Si444    Si       0.10172    0.31012    0.20299    1.000
    Si445    Si       0.03920    0.32335    0.23999    1.000
    Si446    Si       0.15977    0.34347    0.17698    1.000
    N447     N        0.04884    0.36115    0.14586    1.000
    Si448    Si       0.03291    0.36533    0.18893    1.000
    N449     N        0.15173    0.34443    0.13453    1.000
    N450     N        0.09985    0.32359    0.32534    1.000
    N451     N        0.04944    0.32825    0.28155    1.000
    N452     N        0.04026    0.31692    0.34566    1.000
    Si453    Si       0.07908    0.35219    0.30227    1.000
    N454     N        0.16401    0.32913    0.35263    1.000
    N455     N        0.14845    0.31241    0.27733    1.000
    Si456    Si       0.22590    0.35386    0.35239    1.000
    Si457    Si       0.14215    0.34965    0.25275    1.000
    Si458    Si       0.14135    0.31218    0.31978    1.000
    N459     N        0.23567    0.31164    0.35614    1.000
    Si460    Si       0.03687    0.34136    0.38114    1.000
    N461     N        0.01547    0.31461    0.40898    1.000
    Si462    Si       0.07600    0.34281    0.44650    1.000
    N463     N        0.03706    0.34946    0.46766    1.000
    N464     N        0.11216    0.35013    0.46683    1.000
    N465     N        0.21294    0.30659    0.48615    1.000
    N466     N        0.13922    0.36066    0.40356    1.000
    Si467    Si       0.21763    0.32793    0.44597    1.000
    N468     N        0.19564    0.31495    0.41160    1.000
    Si469    Si       0.15822    0.32181    0.39633    1.000
    N470     N        0.07431    0.30094    0.44048    1.000
    N471     N        0.22030    0.36484    0.31107    1.000
    N472     N        0.18391    0.35512    0.45775    1.000
    N473     N        0.07590    0.31856    0.51461    1.000
    Si474    Si       0.02052    0.33395    0.57552    1.000
    N475     N        0.00854    0.33963    0.52898    1.000
    N476     N        0.10351    0.33107    0.58243    1.000
    Si477    Si       0.03546    0.32372    0.50145    1.000
    Si478    Si       0.12055    0.30483    0.67007    1.000
    Si479    Si       0.08338    0.34727    0.61762    1.000
    N480     N        0.14750    0.32989    0.52399    1.000
    Si481    Si       0.14357    0.33901    0.56608    1.000
    Si482    Si       0.17604    0.35447    0.50181    1.000
    Si483    Si       0.23408    0.32344    0.51947    1.000
    N484     N        0.15927    0.33010    0.66548    1.000
    Si485    Si       0.05060    0.32441    0.69168    1.000
    N486     N        0.08686    0.33298    0.66260    1.000
    N487     N        0.01601    0.31161    0.66724    1.000
    N488     N        0.21903    0.33337    0.70095    1.000
    N489     N        0.15398    0.33781    0.73022    1.000
    Si490    Si       0.17947    0.35241    0.69647    1.000
    N491     N        0.20892    0.35955    0.52789    1.000
    Si492    Si       0.11475    0.31950    0.49638    1.000
    Si493    Si       0.07822    0.33937    0.80280    1.000
    Si494    Si       0.02093    0.32041    0.78740    1.000
    N495     N        0.04718    0.35273    0.77506    1.000
    N496     N        0.07996    0.35709    0.84354    1.000
    Si497    Si       0.11405    0.34385    0.86655    1.000
    N498     N        0.14722    0.34659    0.96160    1.000
    N499     N        0.11647    0.33960    0.78620    1.000
    Si500    Si       0.14967    0.31855    0.80508    1.000
    N501     N        0.18377    0.34087    0.81656    1.000
    N502     N        0.12800    0.31000    0.84335    1.000
    N503     N        0.01603    0.35432    0.87773    1.000
    Si504    Si       0.02479    0.31351    0.89144    1.000
    N505     N        0.02504    0.32926    0.93371    1.000
    Si506    Si       0.05335    0.31657    0.96277    1.000
    N507     N        0.08050    0.34966    0.96996    1.000
    N508     N        0.10712    0.32653    0.90657    1.000
    Si509    Si       0.17086    0.31389    0.97907    1.000
    N510     N        0.21245    0.35435    0.88142    1.000
    Si511    Si       0.11278    0.35375    0.93910    1.000
    Si512    Si       0.98906    0.30371    0.00108    1.000
    Si513    Si       0.02726    0.37385    0.06857    1.000
    N514     N        0.01291    0.39640    0.10388    1.000
    Si515    Si       0.08447    0.37532    0.00633    1.000
    N516     N        0.06491    0.37136    0.04571    1.000
    N517     N        0.99571    0.37915    0.03908    1.000
    N518     N        0.11838    0.37916    0.08693    1.000
    N519     N        0.18355    0.37834    0.06917    1.000
    Si520    Si       0.14389    0.39416    0.05759    1.000
    Si521    Si       0.20463    0.39969    0.10053    1.000
    N522     N        0.12594    0.37532    0.02156    1.000
    N523     N        0.22382    0.36757    0.12246    1.000
    N524     N        0.16696    0.41779    0.12236    1.000
    N525     N        0.99614    0.38860    0.17465    1.000
    N526     N        0.06267    0.39700    0.19563    1.000
    Si527    Si       0.06813    0.39947    0.14928    1.000
    Si528    Si       0.10658    0.38325    0.20056    1.000
    N529     N        0.11126    0.39238    0.15651    1.000
    Si530    Si       0.13864    0.38475    0.12507    1.000
    N531     N        0.19543    0.36981    0.18908    1.000
    Si532    Si       0.20426    0.38333    0.22893    1.000
    Si533    Si       0.22888    0.37639    0.16317    1.000
    N534     N        0.11909    0.41768    0.22515    1.000
    Si535    Si       0.98760    0.37602    0.13372    1.000
    N536     N        0.01002    0.35452    0.22645    1.000
    N537     N        0.07762    0.39522    0.31184    1.000
    N538     N        0.00733    0.38877    0.29362    1.000
    Si539    Si       0.10190    0.40966    0.26505    1.000
    Si540    Si       0.04116    0.41476    0.29277    1.000
    N541     N        0.10558    0.36596    0.26631    1.000
    N542     N        0.01925    0.37914    0.36610    1.000
    Si543    Si       0.14546    0.37624    0.45439    1.000
    Si544    Si       0.11569    0.41023    0.32606    1.000
    Si545    Si       0.15655    0.37345    0.36290    1.000
    N546     N        0.17590    0.37664    0.25851    1.000
    N547     N        0.15286    0.38519    0.31925    1.000
    Si548    Si       0.18835    0.39002    0.29792    1.000
    N549     N        0.12489    0.41124    0.43838    1.000
    N550     N        0.12694    0.40966    0.36889    1.000
    N551     N        0.19820    0.38437    0.37202    1.000
    N552     N        0.06744    0.36428    0.40513    1.000
    Si553    Si       0.03999    0.39791    0.40028    1.000
    Si554    Si       0.01373    0.38571    0.46325    1.000
    N555     N        0.00595    0.40343    0.42534    1.000
    Si556    Si       0.10654    0.39053    0.40479    1.000
    N557     N        0.04358    0.41301    0.48121    1.000
    Si558    Si       0.21891    0.42009    0.38847    1.000
    Si559    Si       0.03553    0.40131    0.59797    1.000
    N560     N        0.01782    0.40306    0.55809    1.000
    N561     N        0.19025    0.39421    0.70267    1.000
    N562     N        0.16033    0.37687    0.57387    1.000
    Si563    Si       0.19740    0.39218    0.55652    1.000
    Si564    Si       0.14451    0.39791    0.60988    1.000
    N565     N        0.22871    0.39691    0.58511    1.000
    N566     N        0.17685    0.40001    0.63736    1.000
    N567     N        0.15360    0.39243    0.49709    1.000
    N568     N        0.09403    0.38623    0.74101    1.000
    Si569    Si       0.99265    0.41448    0.73232    1.000
    Si570    Si       0.02462    0.39206    0.67271    1.000
    N571     N        0.04490    0.36595    0.70213    1.000
    N572     N        0.06139    0.41221    0.66005    1.000
    N573     N        0.10858    0.38246    0.62917    1.000
    Si574    Si       0.09423    0.37852    0.67066    1.000
    Si575    Si       0.16613    0.41835    0.67492    1.000
    Si576    Si       0.21940    0.40346    0.62740    1.000
    Si577    Si       0.21878    0.40513    0.73330    1.000
    N578     N        0.12612    0.40678    0.68649    1.000
    N579     N        0.04478    0.35960    0.60229    1.000
    Si580    Si       0.05014    0.38231    0.74520    1.000
    N581     N        0.01587    0.38702    0.82697    1.000
    Si582    Si       0.04716    0.38164    0.85596    1.000
    Si583    Si       0.14231    0.40736    0.89880    1.000
    N584     N        0.02668    0.41643    0.76355    1.000
    Si585    Si       0.00197    0.41704    0.79996    1.000
    Si586    Si       0.21991    0.38959    0.90694    1.000
    Si587    Si       0.19448    0.37651    0.79332    1.000
    N588     N        0.15747    0.38920    0.77491    1.000
    N589     N        0.19749    0.40055    0.82974    1.000
    N590     N        0.22339    0.37360    0.76217    1.000
    Si591    Si       0.18274    0.36472    0.85191    1.000
    Si592    Si       0.12938    0.36638    0.75360    1.000
    Si593    Si       0.01228    0.36909    0.91799    1.000
    N594     N        0.04624    0.39627    0.92120    1.000
    Si595    Si       0.07842    0.41528    0.94424    1.000
    N596     N        0.07724    0.41497    0.98726    1.000
    N597     N        0.17091    0.41596    0.98521    1.000
    N598     N        0.14595    0.37402    0.87061    1.000
    N599     N        0.18286    0.41238    0.91753    1.000
    N600     N        0.11373    0.39744    0.92889    1.000
    Si601    Si       0.15883    0.37504    0.99350    1.000
    N602     N        0.00531    0.44969    0.02107    1.000
    N603     N        0.07853    0.46041    0.04356    1.000
    N604     N        0.02554    0.46472    0.08150    1.000
    Si605    Si       0.01830    0.43770    0.11326    1.000
    Si606    Si       0.08498    0.45337    0.00133    1.000
    Si607    Si       0.03845    0.47465    0.03733    1.000
    N608     N        0.11340    0.45940    0.11507    1.000
    Si609    Si       0.11531    0.46516    0.06934    1.000
    N610     N        0.23344    0.43331    0.09781    1.000
    N611     N        0.14207    0.43580    0.04804    1.000
    Si612    Si       0.15439    0.44866    0.00888    1.000
    Si613    Si       0.22714    0.47467    0.00269    1.000
    N614     N        0.18487    0.47715    0.01511    1.000
    Si615    Si       0.23493    0.47025    0.07471    1.000
    Si616    Si       0.08211    0.46726    0.14541    1.000
    Si617    Si       0.05108    0.43509    0.21636    1.000
    N618     N        0.00633    0.44360    0.21522    1.000
    N619     N        0.05469    0.43653    0.13445    1.000
    N620     N        0.07540    0.46439    0.19272    1.000
    N621     N        0.98694    0.46208    0.13462    1.000
    Si622    Si       0.11484    0.45688    0.21001    1.000
    N623     N        0.21608    0.42667    0.22505    1.000
    Si624    Si       0.15210    0.45673    0.13664    1.000
    N625     N        0.14580    0.45889    0.17998    1.000
    Si626    Si       0.99091    0.48293    0.21807    1.000
    N627     N        0.03024    0.44964    0.31597    1.000
    N628     N        0.09531    0.47175    0.35435    1.000
    N629     N        0.06182    0.42118    0.25588    1.000
    Si630    Si       0.19389    0.47034    0.44327    1.000
    N631     N        0.18442    0.44097    0.41074    1.000
    N632     N        0.16583    0.45824    0.47374    1.000
    N633     N        0.23244    0.44721    0.35859    1.000
    N634     N        0.12067    0.43750    0.29140    1.000
    N635     N        0.16614    0.46440    0.35301    1.000
    Si636    Si       0.21067    0.45152    0.25858    1.000
    Si637    Si       0.20310    0.46072    0.33144    1.000
    N638     N        0.20277    0.43316    0.29716    1.000
    Si639    Si       0.13833    0.47380    0.27747    1.000
    Si640    Si       0.12845    0.45259    0.44939    1.000
    N641     N        0.23487    0.47051    0.45479    1.000
    Si642    Si       0.08227    0.47102    0.39549    1.000
    Si643    Si       0.05617    0.44483    0.45457    1.000
    N644     N        0.06679    0.43116    0.41261    1.000
    N645     N        0.09323    0.45664    0.47318    1.000
    N646     N        0.01886    0.46940    0.45353    1.000
    Si647    Si       0.14941    0.44321    0.38742    1.000
    N648     N        0.12509    0.47058    0.41049    1.000
    N649     N        0.06192    0.45192    0.53294    1.000
    Si650    Si       0.06362    0.46412    0.57524    1.000
    Si651    Si       0.09772    0.46771    0.51447    1.000
    Si652    Si       0.99697    0.46093    0.60984    1.000
    Si653    Si       0.03475    0.42167    0.52223    1.000
    N654     N        0.99528    0.44346    0.51604    1.000
    N655     N        0.06979    0.42747    0.59563    1.000
    Si656    Si       0.21218    0.46602    0.54787    1.000
    Si657    Si       0.16404    0.43331    0.50969    1.000
    N658     N        0.13277    0.45045    0.53351    1.000
    N659     N        0.13241    0.44069    0.60973    1.000
    N660     N        0.19828    0.42776    0.53406    1.000
    Si661    Si       0.13829    0.46727    0.57297    1.000
    N662     N        0.00916    0.42916    0.69445    1.000
    N663     N        0.07196    0.44309    0.72027    1.000
    Si664    Si       0.04990    0.44938    0.68371    1.000
    N665     N        0.09792    0.46820    0.65505    1.000
    Si666    Si       0.09340    0.42793    0.63165    1.000
    Si667    Si       0.10993    0.42416    0.72229    1.000
    N668     N        0.17052    0.46091    0.67048    1.000
    Si669    Si       0.13904    0.47334    0.64208    1.000
    Si670    Si       0.21410    0.47281    0.65964    1.000
    N671     N        0.23311    0.44018    0.64002    1.000
    N672     N        0.00416    0.41979    0.62204    1.000
    Si673    Si       0.05423    0.45726    0.83345    1.000
    N674     N        0.07675    0.46068    0.79482    1.000
    Si675    Si       0.05252    0.45201    0.75844    1.000
    N676     N        0.00958    0.45706    0.81998    1.000
    N677     N        0.06027    0.42163    0.85890    1.000
    Si678    Si       0.11704    0.47035    0.78636    1.000
    Si679    Si       0.16378    0.43047    0.77765    1.000
    N680     N        0.14808    0.45353    0.81191    1.000
    Si681    Si       0.21855    0.43308    0.84920    1.000
    Si682    Si       0.15400    0.46570    0.85243    1.000
    N683     N        0.20221    0.43655    0.75932    1.000
    N684     N        0.19668    0.46729    0.86219    1.000
    Si685    Si       0.22709    0.46529    0.78175    1.000
    N686     N        0.13270    0.44556    0.75140    1.000
    Si687    Si       0.04199    0.43202    0.89493    1.000
    N688     N        0.00134    0.43538    0.88574    1.000
    N689     N        0.00411    0.45707    0.95061    1.000
    N690     N        0.06967    0.45347    0.92539    1.000
    Si691    Si       0.09478    0.47273    0.89367    1.000
    Si692    Si       0.99022    0.47457    0.98791    1.000
    Si693    Si       0.18780    0.43862    0.95208    1.000
    N694     N        0.12740    0.44711    0.88345    1.000
    N695     N        0.12274    0.46376    0.98405    1.000
    N696     N        0.22909    0.44751    0.96651    1.000
    Si697    Si       0.04286    0.47897    0.94862    1.000
    N698     N        0.02739    0.51772    0.04437    1.000
    Si699    Si       0.00391    0.50131    0.08044    1.000
    N700     N        0.01099    0.52323    0.11705    1.000
    N701     N        0.13335    0.50614    0.06415    1.000
    Si702    Si       0.17410    0.50417    0.04831    1.000
    N703     N        0.20339    0.49833    0.07867    1.000
    Si704    Si       0.19835    0.52044    0.11540    1.000
    N705     N        0.07211    0.50930    0.14728    1.000
    N706     N        0.01580    0.50199    0.18472    1.000
    Si707    Si       0.05810    0.50476    0.18853    1.000
    Si708    Si       0.99002    0.50362    0.14961    1.000
    N709     N        0.07814    0.53435    0.21258    1.000
    N710     N        0.15129    0.52941    0.19835    1.000
    N711     N        0.17291    0.49565    0.14001    1.000
    Si712    Si       0.24111    0.52066    0.17636    1.000
    N713     N        0.11662    0.48746    0.24090    1.000
    N714     N        0.21548    0.48750    0.19128    1.000
    Si715    Si       0.11932    0.52890    0.23017    1.000
    Si716    Si       0.17237    0.49428    0.18411    1.000
    N717     N        0.04930    0.50991    0.30637    1.000
    Si718    Si       0.01421    0.48630    0.29494    1.000
    N719     N        0.99975    0.49974    0.25821    1.000
    Si720    Si       0.21012    0.50751    0.27636    1.000
    N721     N        0.12930    0.50306    0.30605    1.000
    N722     N        0.21377    0.50149    0.31846    1.000
    Si723    Si       0.13352    0.49320    0.34868    1.000
    Si724    Si       0.01920    0.48819    0.41338    1.000
    N725     N        0.06747    0.50031    0.42298    1.000
    N726     N        0.01408    0.53148    0.41901    1.000
    N727     N        0.22984    0.52589    0.38362    1.000
    N728     N        0.18396    0.50958    0.43148    1.000
    N729     N        0.13176    0.52792    0.37661    1.000
    Si730    Si       0.14981    0.53297    0.41789    1.000
    Si731    Si       0.05791    0.47952    0.33601    1.000
    N732     N        0.03592    0.47904    0.37158    1.000
    N733     N        0.17720    0.48259    0.26225    1.000
    Si734    Si       0.04481    0.52285    0.59900    1.000
    Si735    Si       0.09607    0.52883    0.55160    1.000
    N736     N        0.09757    0.51061    0.51194    1.000
    N737     N        0.09961    0.49092    0.57330    1.000
    N738     N        0.02997    0.48272    0.59385    1.000
    Si739    Si       0.18442    0.51627    0.60314    1.000
    N740     N        0.22462    0.49697    0.51945    1.000
    N741     N        0.17968    0.48026    0.57544    1.000
    Si742    Si       0.23265    0.53286    0.54144    1.000
    N743     N        0.10231    0.52056    0.70247    1.000
    N744     N        0.07503    0.52516    0.62950    1.000
    N745     N        0.04047    0.49247    0.68005    1.000
    Si746    Si       0.00755    0.51616    0.69522    1.000
    Si747    Si       0.07945    0.50740    0.66838    1.000
    Si748    Si       0.11303    0.53606    0.74239    1.000
    N749     N        0.21467    0.50724    0.63335    1.000
    N750     N        0.23794    0.49107    0.69176    1.000
    Si751    Si       0.23609    0.52767    0.71419    1.000
    N752     N        0.14391    0.51025    0.62286    1.000
    N753     N        0.19752    0.53674    0.73437    1.000
    Si754    Si       0.00134    0.49077    0.79412    1.000
    N755     N        0.02813    0.48811    0.75605    1.000
    Si756    Si       0.03641    0.52968    0.76265    1.000
    N757     N        0.02038    0.52748    0.80253    1.000
    N758     N        0.13298    0.51120    0.77543    1.000
    N759     N        0.13554    0.50572    0.85298    1.000
    N760     N        0.20908    0.50207    0.79517    1.000
    Si761    Si       0.17668    0.52568    0.77206    1.000
    Si762    Si       0.13100    0.53005    0.81671    1.000
    Si763    Si       0.23707    0.52667    0.81791    1.000
    N764     N        0.23140    0.53660    0.86102    1.000
    N765     N        0.06109    0.48505    0.86891    1.000
    N766     N        0.99292    0.50085    0.87108    1.000
    N767     N        0.03411    0.51636    0.92970    1.000
    Si768    Si       0.03226    0.51387    0.88575    1.000
    N769     N        0.05334    0.48056    0.98902    1.000
    N770     N        0.17467    0.47880    0.94599    1.000
    N771     N        0.99057    0.51761    0.98829    1.000
    Si772    Si       0.13723    0.53011    0.89010    1.000
    N773     N        0.17775    0.52824    0.90291    1.000
    Si774    Si       0.20058    0.51657    0.93810    1.000
    Si775    Si       0.20592    0.50557    0.87925    1.000
    Si776    Si       0.13304    0.49352    0.95461    1.000
    N777     N        0.23285    0.50630    0.91421    1.000
    N778     N        0.11531    0.50227    0.91640    1.000
    N779     N        0.12962    0.53084    0.97877    1.000
    Si780    Si       0.03484    0.56027    0.03351    1.000
    Si781    Si       0.07423    0.59027    0.09507    1.000
    N782     N        0.99251    0.57190    0.03314    1.000
    N783     N        0.07507    0.54218    0.08540    1.000
    N784     N        0.11043    0.56336    0.03089    1.000
    Si785    Si       0.11534    0.54630    0.07080    1.000
    N786     N        0.17888    0.54471    0.03507    1.000
    Si787    Si       0.19409    0.56920    0.06614    1.000
    N788     N        0.17549    0.55569    0.10401    1.000
    N789     N        0.22458    0.58872    0.01976    1.000
    N790     N        0.11854    0.58442    0.09472    1.000
    N791     N        0.03095    0.58757    0.20166    1.000
    N792     N        0.05356    0.57906    0.13328    1.000
    Si793    Si       0.06348    0.57229    0.22494    1.000
    N794     N        0.15210    0.59205    0.16363    1.000
    Si795    Si       0.05107    0.53666    0.12157    1.000
    N796     N        0.17483    0.59511    0.22358    1.000
    Si797    Si       0.23274    0.56091    0.22653    1.000
    Si798    Si       0.15426    0.58826    0.11955    1.000
    Si799    Si       0.17329    0.56554    0.19031    1.000
    N800     N        0.21646    0.55709    0.18579    1.000
    N801     N        0.23536    0.56805    0.08166    1.000
    N802     N        0.04866    0.59548    0.05649    1.000
    N803     N        0.06058    0.57221    0.26925    1.000
    N804     N        0.02368    0.56906    0.33341    1.000
    Si805    Si       0.05591    0.55197    0.30866    1.000
    N806     N        0.09423    0.55820    0.32603    1.000
    Si807    Si       0.09897    0.59473    0.26697    1.000
    Si808    Si       0.03909    0.59005    0.37008    1.000
    Si809    Si       0.10417    0.56193    0.36908    1.000
    Si810    Si       0.20372    0.58073    0.32214    1.000
    Si811    Si       0.17336    0.57563    0.26412    1.000
    N812     N        0.12907    0.56016    0.26388    1.000
    N813     N        0.16780    0.55867    0.31463    1.000
    Si814    Si       0.12982    0.54668    0.30545    1.000
    N815     N        0.20535    0.54615    0.25607    1.000
    Si816    Si       0.99113    0.56648    0.42395    1.000
    Si817    Si       0.03013    0.57877    0.48780    1.000
    N818     N        0.06672    0.56424    0.39099    1.000
    N819     N        0.06035    0.55555    0.46621    1.000
    N820     N        0.99637    0.59089    0.38552    1.000
    N821     N        0.99771    0.58880    0.46079    1.000
    Si822    Si       0.09681    0.54047    0.48194    1.000
    Si823    Si       0.05692    0.54087    0.42593    1.000
    Si824    Si       0.21364    0.54035    0.41958    1.000
    N825     N        0.18046    0.56698    0.41160    1.000
    Si826    Si       0.13442    0.58823    0.47189    1.000
    N827     N        0.12808    0.54814    0.45282    1.000
    N828     N        0.17662    0.59542    0.47599    1.000
    N829     N        0.23287    0.56662    0.44531    1.000
    N830     N        0.00980    0.55778    0.52183    1.000
    Si831    Si       0.01825    0.57198    0.56247    1.000
    N832     N        0.00984    0.54711    0.60203    1.000
    N833     N        0.05791    0.54471    0.56483    1.000
    Si834    Si       0.11336    0.53998    0.61394    1.000
    N835     N        0.11590    0.57402    0.50842    1.000
    N836     N        0.12358    0.55158    0.57395    1.000
    Si837    Si       0.19218    0.58350    0.58246    1.000
    Si838    Si       0.12825    0.58499    0.54730    1.000
    N839     N        0.22831    0.56648    0.51328    1.000
    N840     N        0.20364    0.54119    0.57065    1.000
    N841     N        0.17091    0.59140    0.54499    1.000
    N842     N        0.98723    0.54042    0.66444    1.000
    Si843    Si       0.02656    0.58280    0.70784    1.000
    N844     N        0.04442    0.57919    0.67052    1.000
    Si845    Si       0.01153    0.56803    0.64053    1.000
    N846     N        0.01803    0.54365    0.72609    1.000
    N847     N        0.13893    0.57110    0.73932    1.000
    N848     N        0.18845    0.56237    0.62276    1.000
    N849     N        0.11752    0.57714    0.63834    1.000
    Si850    Si       0.15780    0.58956    0.63938    1.000
    Si851    Si       0.22566    0.54897    0.63925    1.000
    N852     N        0.22586    0.56024    0.68325    1.000
    Si853    Si       0.19053    0.57349    0.71279    1.000
    N854     N        0.16482    0.59356    0.68235    1.000
    Si855    Si       0.01915    0.56093    0.82996    1.000
    N856     N        0.09695    0.55497    0.82140    1.000
    Si857    Si       0.08096    0.58015    0.78966    1.000
    Si858    Si       0.08076    0.56698    0.86058    1.000
    N859     N        0.07577    0.54789    0.76051    1.000
    N860     N        0.04256    0.55059    0.86631    1.000
    Si861    Si       0.19496    0.58336    0.81385    1.000
    N862     N        0.16511    0.55458    0.80309    1.000
    N863     N        0.23413    0.56736    0.80549    1.000
    Si864    Si       0.23540    0.58027    0.86923    1.000
    N865     N        0.99247    0.57049    0.94753    1.000
    Si866    Si       0.01912    0.54060    0.96498    1.000
    Si867    Si       0.09404    0.55501    0.99037    1.000
    N868     N        0.05009    0.55667    0.99380    1.000
    N869     N        0.09913    0.59283    0.96801    1.000
    Si870    Si       0.16385    0.55274    0.99657    1.000
    N871     N        0.23547    0.59337    0.91056    1.000
    N872     N        0.11519    0.56738    0.88571    1.000
    N873     N        0.20049    0.54526    0.97059    1.000
    Si874    Si       0.23733    0.55318    0.99360    1.000
    N875     N        0.04140    0.59304    0.80486    1.000
    N876     N        0.07111    0.63415    0.10135    1.000
    Si877    Si       0.05988    0.63956    0.06043    1.000
    N878     N        0.01607    0.64995    0.04014    1.000
    Si879    Si       0.16425    0.62571    0.19421    1.000
    N880     N        0.10643    0.63465    0.03824    1.000
    Si881    Si       0.19293    0.61699    0.00811    1.000
    N882     N        0.17529    0.62750    0.11322    1.000
    N883     N        0.17337    0.60679    0.05328    1.000
    Si884    Si       0.17919    0.64612    0.07389    1.000
    Si885    Si       0.13297    0.60248    0.03549    1.000
    Si886    Si       0.04597    0.60796    0.16242    1.000
    Si887    Si       0.09813    0.64520    0.20691    1.000
    N888     N        0.01115    0.63115    0.15351    1.000
    N889     N        0.09259    0.60586    0.22491    1.000
    N890     N        0.07824    0.63686    0.16856    1.000
    Si891    Si       0.20358    0.65066    0.13585    1.000
    N892     N        0.19959    0.64228    0.17804    1.000
    N893     N        0.06614    0.62210    0.35707    1.000
    N894     N        0.00601    0.64773    0.35332    1.000
    Si895    Si       0.10649    0.62540    0.34300    1.000
    N896     N        0.10983    0.62123    0.29768    1.000
    N897     N        0.19494    0.60659    0.28921    1.000
    Si898    Si       0.20264    0.64805    0.28846    1.000
    N899     N        0.20458    0.60370    0.35882    1.000
    Si900    Si       0.23618    0.63468    0.35950    1.000
    N901     N        0.12892    0.59810    0.36961    1.000
    N902     N        0.99601    0.64509    0.42589    1.000
    Si903    Si       0.08175    0.63905    0.47938    1.000
    N904     N        0.17945    0.62960    0.41578    1.000
    Si905    Si       0.14513    0.65162    0.43766    1.000
    Si906    Si       0.20297    0.59942    0.44060    1.000
    N907     N        0.11776    0.62465    0.45906    1.000
    N908     N        0.22988    0.63269    0.45371    1.000
    Si909    Si       0.16995    0.59888    0.38606    1.000
    Si910    Si       0.02956    0.62906    0.60612    1.000
    Si911    Si       0.06430    0.63461    0.54272    1.000
    N912     N        0.03441    0.61195    0.56602    1.000
    Si913    Si       0.09641    0.64233    0.59480    1.000
    N914     N        0.10170    0.61609    0.56261    1.000
    N915     N        0.05102    0.61538    0.49973    1.000
    N916     N        0.21155    0.64031    0.52051    1.000
    N917     N        0.22934    0.60598    0.57969    1.000
    N918     N        0.16312    0.61546    0.60399    1.000
    Si919    Si       0.22068    0.64649    0.56176    1.000
    Si920    Si       0.19781    0.59754    0.51331    1.000
    N921     N        0.99761    0.60776    0.62565    1.000
    N922     N        0.06870    0.62203    0.62351    1.000
    Si923    Si       0.99302    0.64477    0.69675    1.000
    N924     N        0.04026    0.61144    0.73726    1.000
    Si925    Si       0.06522    0.63995    0.71457    1.000
    N926     N        0.09452    0.61499    0.69310    1.000
    Si927    Si       0.08268    0.59642    0.65450    1.000
    N928     N        0.14487    0.63394    0.73777    1.000
    N929     N        0.22004    0.60230    0.72806    1.000
    Si930    Si       0.13213    0.60502    0.70849    1.000
    N931     N        0.22768    0.62727    0.66776    1.000
    Si932    Si       0.01673    0.61574    0.77231    1.000
    N933     N        0.01865    0.62885    0.86036    1.000
    Si934    Si       0.04874    0.63143    0.82757    1.000
    N935     N        0.10914    0.61205    0.79049    1.000
    N936     N        0.07786    0.61168    0.85909    1.000
    N937     N        0.02517    0.65376    0.79172    1.000
    N938     N        0.15849    0.59592    0.99546    1.000
    Si939    Si       0.11567    0.64311    0.82036    1.000
    N940     N        0.13928    0.63171    0.85528    1.000
    Si941    Si       0.18187    0.63954    0.85971    1.000
    Si942    Si       0.22122    0.62541    0.76374    1.000
    N943     N        0.18511    0.61304    0.78494    1.000
    Si944    Si       0.14526    0.60152    0.76963    1.000
    N945     N        0.20066    0.60179    0.85206    1.000
    N946     N        0.99762    0.64454    0.97705    1.000
    Si947    Si       0.05284    0.63200    0.88834    1.000
    Si948    Si       0.07425    0.62320    0.95025    1.000
    N949     N        0.03777    0.61694    0.92859    1.000
    N950     N        0.09668    0.63794    0.91655    1.000
    Si951    Si       0.99878    0.61298    0.94658    1.000
    N952     N        0.06699    0.65287    0.98096    1.000
    Si953    Si       0.13729    0.61354    0.96197    1.000
    Si954    Si       0.12403    0.61057    0.89065    1.000
    N955     N        0.15660    0.60484    0.92468    1.000
    N956     N        0.20982    0.62806    0.96569    1.000
    N957     N        0.19716    0.65011    0.89874    1.000
    Si958    Si       0.19918    0.61533    0.92521    1.000
    N959     N        0.07200    0.68325    0.05757    1.000
    N960     N        0.03325    0.70462    0.00539    1.000
    Si961    Si       0.02983    0.66138    0.99988    1.000
    Si962    Si       0.99242    0.68609    0.05474    1.000
    Si963    Si       0.11373    0.67570    0.04858    1.000
    N964     N        0.12075    0.70074    0.01299    1.000
    N965     N        0.21986    0.66165    0.07337    1.000
    Si966    Si       0.21484    0.68736    0.03749    1.000
    N967     N        0.14906    0.67690    0.07590    1.000
    Si968    Si       0.14974    0.69870    0.11465    1.000
    N969     N        0.18397    0.65994    0.02144    1.000
    N970     N        0.01858    0.71470    0.07567    1.000
    Si971    Si       0.04488    0.70495    0.22219    1.000
    N972     N        0.01158    0.67751    0.20894    1.000
    N973     N        0.04079    0.68727    0.13807    1.000
    N974     N        0.07644    0.67860    0.22560    1.000
    Si975    Si       0.00985    0.67329    0.16578    1.000
    Si976    Si       0.07733    0.66253    0.13314    1.000
    N977     N        0.11271    0.68805    0.13567    1.000
    N978     N        0.20453    0.68916    0.22463    1.000
    Si979    Si       0.16317    0.68424    0.23669    1.000
    N980     N        0.14037    0.65791    0.21027    1.000
    N981     N        0.18830    0.69204    0.13230    1.000
    Si982    Si       0.22904    0.67027    0.19506    1.000
    N983     N        0.05560    0.68850    0.32451    1.000
    Si984    Si       0.02492    0.70063    0.29725    1.000
    N985     N        0.00633    0.66394    0.28375    1.000
    Si986    Si       0.04753    0.66128    0.35642    1.000
    Si987    Si       0.14180    0.68539    0.30971    1.000
    Si988    Si       0.20628    0.69523    0.35840    1.000
    N989     N        0.16606    0.66739    0.27668    1.000
    N990     N        0.22207    0.66279    0.32653    1.000
    N991     N        0.12704    0.66401    0.34526    1.000
    N992     N        0.16864    0.70601    0.33914    1.000
    N993     N        0.11402    0.71122    0.29192    1.000
    N994     N        0.22412    0.71386    0.28701    1.000
    N995     N        0.00611    0.71365    0.44073    1.000
    N996     N        0.05174    0.68084    0.39471    1.000
    Si997    Si       0.08333    0.69165    0.42130    1.000
    Si998    Si       0.02467    0.67575    0.42841    1.000
    N999     N        0.06049    0.66872    0.45436    1.000
    Si1000   Si       0.99025    0.70345    0.48004    1.000
    Si1001   Si       0.14065    0.69563    0.37226    1.000
    Si1002   Si       0.16052    0.70307    0.48803    1.000
    Si1003   Si       0.20598    0.66579    0.42475    1.000
    N1004    N        0.23747    0.66470    0.38969    1.000
    N1005    N        0.17478    0.67065    0.46390    1.000
    N1006    N        0.22999    0.69453    0.44999    1.000
    N1007    N        0.18284    0.69564    0.39871    1.000
    N1008    N        0.12142    0.67602    0.40929    1.000
    N1009    N        0.11715    0.70386    0.47010    1.000
    Si1010   Si       0.21739    0.66984    0.48920    1.000
    Si1011   Si       0.04573    0.69844    0.60044    1.000
    Si1012   Si       0.09978    0.70203    0.51087    1.000
    N1013    N        0.06519    0.66760    0.57671    1.000
    N1014    N        0.08789    0.66227    0.51593    1.000
    N1015    N        0.01539    0.66964    0.61407    1.000
    N1016    N        0.12418    0.67214    0.60574    1.000
    N1017    N        0.19042    0.67420    0.57414    1.000
    Si1018   Si       0.17599    0.70679    0.55142    1.000
    N1019    N        0.13992    0.70378    0.52681    1.000
    Si1020   Si       0.16535    0.65912    0.60486    1.000
    N1021    N        0.20054    0.70780    0.51018    1.000
    Si1022   Si       0.04299    0.69739    0.67084    1.000
    N1023    N        0.07037    0.70215    0.63587    1.000
    N1024    N        0.08642    0.67112    0.73920    1.000
    N1025    N        0.03496    0.65843    0.68967    1.000
    Si1026   Si       0.06854    0.70930    0.74283    1.000
    Si1027   Si       0.11235    0.70637    0.63000    1.000
    N1028    N        0.20456    0.68980    0.69999    1.000
    Si1029   Si       0.21742    0.66873    0.66420    1.000
    N1030    N        0.15170    0.70165    0.73805    1.000
    N1031    N        0.18395    0.67573    0.64110    1.000
    Si1032   Si       0.22988    0.69341    0.73209    1.000
    Si1033   Si       0.01591    0.69605    0.79616    1.000
    Si1034   Si       0.06995    0.70114    0.85139    1.000
    N1035    N        0.02045    0.70056    0.83924    1.000
    N1036    N        0.07923    0.66507    0.82788    1.000
    Si1037   Si       0.18317    0.68197    0.79426    1.000
    N1038    N        0.21682    0.67219    0.76884    1.000
    N1039    N        0.19889    0.67032    0.83482    1.000
    N1040    N        0.14173    0.67035    0.79546    1.000
    Si1041   Si       0.12778    0.66923    0.75156    1.000
    Si1042   Si       0.09195    0.68167    0.91005    1.000
    Si1043   Si       0.01204    0.69308    0.88153    1.000
    N1044    N        0.05205    0.67798    0.89238    1.000
    Si1045   Si       0.10005    0.68088    0.97918    1.000
    N1046    N        0.09630    0.70641    0.94541    1.000
    N1047    N        0.10954    0.69988    0.87647    1.000
    N1048    N        0.17904    0.71256    0.88028    1.000
    N1049    N        0.13476    0.65575    0.97125    1.000
    Si1050   Si       0.20861    0.69075    0.90554    1.000
    N1051    N        0.22243    0.69189    0.94585    1.000
    Si1052   Si       0.21174    0.71478    0.84721    1.000
    Si1053   Si       0.15816    0.68414    0.99589    1.000
    N1054    N        0.07905    0.75047    0.04557    1.000
    N1055    N        0.00986    0.75756    0.02550    1.000
    N1056    N        0.07084    0.74311    0.11317    1.000
    Si1057   Si       0.99591    0.72810    0.99886    1.000
    Si1058   Si       0.03263    0.72396    0.11800    1.000
    Si1059   Si       0.04788    0.71960    0.04425    1.000
    Si1060   Si       0.18339    0.75423    0.22268    1.000
    Si1061   Si       0.11267    0.74413    0.01972    1.000
    Si1062   Si       0.18771    0.75105    0.01863    1.000
    N1063    N        0.20706    0.72997    0.05010    1.000
    Si1064   Si       0.21225    0.76274    0.08061    1.000
    N1065    N        0.14954    0.76892    0.02712    1.000
    N1066    N        0.13812    0.74204    0.11259    1.000
    N1067    N        0.22514    0.75276    0.11916    1.000
    N1068    N        0.04416    0.74252    0.20128    1.000
    N1069    N        0.00868    0.74792    0.14514    1.000
    Si1070   Si       0.10470    0.73187    0.13839    1.000
    Si1071   Si       0.08298    0.76292    0.20368    1.000
    N1072    N        0.09291    0.76443    0.24502    1.000
    N1073    N        0.11434    0.75115    0.17486    1.000
    N1074    N        0.18486    0.74750    0.17820    1.000
    Si1075   Si       0.21019    0.72684    0.15125    1.000
    N1076    N        0.15448    0.72665    0.24187    1.000
    N1077    N        0.22206    0.75835    0.23848    1.000
    N1078    N        0.06816    0.76008    0.31112    1.000
    Si1079   Si       0.05619    0.75912    0.26979    1.000
    N1080    N        0.03856    0.72040    0.26179    1.000
    N1081    N        0.99891    0.72652    0.31869    1.000
    Si1082   Si       0.00806    0.76269    0.34329    1.000
    Si1083   Si       0.08549    0.72124    0.32283    1.000
    N1084    N        0.10928    0.72618    0.35796    1.000
    Si1085   Si       0.12546    0.74374    0.26608    1.000
    Si1086   Si       0.22683    0.74846    0.31404    1.000
    N1087    N        0.23255    0.72835    0.35258    1.000
    N1088    N        0.08394    0.73576    0.42464    1.000
    N1089    N        0.02744    0.75019    0.38011    1.000
    Si1090   Si       0.99480    0.73753    0.40560    1.000
    Si1091   Si       0.05968    0.76688    0.40490    1.000
    Si1092   Si       0.12120    0.74014    0.44674    1.000
    Si1093   Si       0.18117    0.73625    0.41723    1.000
    Si1094   Si       0.12178    0.76539    0.37291    1.000
    N1095    N        0.16932    0.73642    0.46099    1.000
    N1096    N        0.14348    0.74880    0.40635    1.000
    N1097    N        0.21904    0.75723    0.41568    1.000
    Si1098   Si       0.23186    0.71648    0.24534    1.000
    N1099    N        0.07403    0.73581    0.51772    1.000
    N1100    N        0.03139    0.73267    0.57944    1.000
    Si1101   Si       0.03675    0.74343    0.53638    1.000
    N1102    N        0.00599    0.72333    0.51520    1.000
    Si1103   Si       0.00329    0.76674    0.58178    1.000
    N1104    N        0.11778    0.74848    0.61525    1.000
    Si1105   Si       0.21891    0.75016    0.50687    1.000
    N1106    N        0.17417    0.74767    0.57129    1.000
    N1107    N        0.22507    0.75366    0.61727    1.000
    Si1108   Si       0.13625    0.76812    0.58187    1.000
    Si1109   Si       0.21154    0.76590    0.57887    1.000
    N1110    N        0.16776    0.75539    0.70495    1.000
    N1111    N        0.04740    0.72350    0.70593    1.000
    Si1112   Si       0.06774    0.76044    0.71099    1.000
    N1113    N        0.09886    0.74075    0.73460    1.000
    Si1114   Si       0.99639    0.75875    0.65904    1.000
    N1115    N        0.00763    0.71869    0.65315    1.000
    Si1116   Si       0.13978    0.74645    0.73692    1.000
    N1117    N        0.13172    0.71783    0.66793    1.000
    Si1118   Si       0.12493    0.76093    0.65876    1.000
    Si1119   Si       0.16600    0.70843    0.69415    1.000
    N1120    N        0.04585    0.72378    0.77616    1.000
    N1121    N        0.06600    0.74377    0.86071    1.000
    Si1122   Si       0.04664    0.76743    0.78152    1.000
    Si1123   Si       0.09330    0.77519    0.84462    1.000
    N1124    N        0.22226    0.75804    0.85741    1.000
    N1125    N        0.13206    0.75475    0.84131    1.000
    N1126    N        0.18821    0.72797    0.80709    1.000
    Si1127   Si       0.16018    0.76249    0.80941    1.000
    Si1128   Si       0.23045    0.73816    0.79281    1.000
    N1129    N        0.23784    0.73228    0.75135    1.000
    N1130    N        0.13682    0.75416    0.91554    1.000
    Si1131   Si       0.09905    0.74906    0.93894    1.000
    N1132    N        0.00419    0.73193    0.90009    1.000
    Si1133   Si       0.03757    0.75777    0.88973    1.000
    N1134    N        0.06280    0.76761    0.92409    1.000
    N1135    N        0.10618    0.76220    0.97988    1.000
    N1136    N        0.21337    0.75523    0.92746    1.000
    N1137    N        0.18240    0.71833    0.98833    1.000
    Si1138   Si       0.22016    0.73087    0.96617    1.000
    N1139    N        0.22456    0.76462    0.99587    1.000
    Si1140   Si       0.13975    0.73012    0.87826    1.000
    N1141    N        0.03907    0.79547    0.08371    1.000
    Si1142   Si       0.00897    0.79081    0.05301    1.000
    N1143    N        0.10989    0.80162    0.08860    1.000
    Si1144   Si       0.07741    0.77350    0.08166    1.000
    Si1145   Si       0.02901    0.83045    0.10898    1.000
    N1146    N        0.17815    0.79094    0.08091    1.000
    Si1147   Si       0.14456    0.78577    0.10821    1.000
    Si1148   Si       0.15991    0.81267    0.04254    1.000
    N1149    N        0.19867    0.81510    0.02212    1.000
    N1150    N        0.13089    0.82824    0.01109    1.000
    N1151    N        0.01835    0.81720    0.14941    1.000
    N1152    N        0.06627    0.79727    0.18216    1.000
    N1153    N        0.99550    0.79411    0.20202    1.000
    Si1154   Si       0.02592    0.77529    0.17561    1.000
    Si1155   Si       0.98950    0.79937    0.24499    1.000
    Si1156   Si       0.15068    0.77611    0.17568    1.000
    Si1157   Si       0.12491    0.80024    0.24825    1.000
    N1158    N        0.15220    0.80684    0.14618    1.000
    N1159    N        0.15349    0.78788    0.21711    1.000
    N1160    N        0.01464    0.82888    0.03266    1.000
    N1161    N        0.09802    0.83518    0.24451    1.000
    Si1162   Si       0.06554    0.79683    0.33337    1.000
    N1163    N        0.02360    0.80318    0.34035    1.000
    N1164    N        0.03039    0.79344    0.25995    1.000
    N1165    N        0.07779    0.82773    0.30648    1.000
    N1166    N        0.20605    0.78553    0.32260    1.000
    Si1167   Si       0.16664    0.80072    0.31365    1.000
    Si1168   Si       0.22876    0.81136    0.35064    1.000
    N1169    N        0.14374    0.79153    0.34820    1.000
    N1170    N        0.14302    0.78301    0.28179    1.000
    N1171    N        0.08313    0.78500    0.37379    1.000
    N1172    N        0.04919    0.79607    0.43343    1.000
    Si1173   Si       0.00821    0.81164    0.42560    1.000
    Si1174   Si       0.07406    0.82160    0.45957    1.000
    N1175    N        0.23880    0.82330    0.43978    1.000
    N1176    N        0.20445    0.82508    0.38330    1.000
    N1177    N        0.11788    0.77485    0.47222    1.000
    N1178    N        0.16983    0.80367    0.44051    1.000
    Si1179   Si       0.21026    0.80001    0.41689    1.000
    Si1180   Si       0.16139    0.77982    0.47377    1.000
    N1181    N        0.03157    0.78635    0.55246    1.000
    Si1182   Si       0.04978    0.82229    0.53481    1.000
    N1183    N        0.06883    0.80773    0.50031    1.000
    Si1184   Si       0.09398    0.77346    0.50928    1.000
    N1185    N        0.99769    0.78216    0.62179    1.000
    N1186    N        0.11708    0.78136    0.54437    1.000
    N1187    N        0.18911    0.78204    0.50639    1.000
    N1188    N        0.20587    0.81035    0.57413    1.000
    Si1189   Si       0.19173    0.81623    0.53465    1.000
    N1190    N        0.13715    0.81118    0.59298    1.000
    Si1191   Si       0.12138    0.82392    0.55335    1.000
    N1192    N        0.08471    0.77665    0.67382    1.000
    Si1193   Si       0.00584    0.79458    0.72529    1.000
    N1194    N        0.00674    0.79507    0.68250    1.000
    N1195    N        0.04695    0.78740    0.73937    1.000
    Si1196   Si       0.99464    0.81877    0.64636    1.000
    Si1197   Si       0.10152    0.82014    0.68076    1.000
    Si1198   Si       0.06979    0.82490    0.73438    1.000
    N1199    N        0.11154    0.81124    0.72266    1.000
    N1200    N        0.14535    0.79964    0.66140    1.000
    N1201    N        0.21845    0.80178    0.66998    1.000
    Si1202   Si       0.18077    0.79301    0.68976    1.000
    N1203    N        0.17873    0.82119    0.72300    1.000
    Si1204   Si       0.00807    0.80380    0.82906    1.000
    N1205    N        0.07294    0.78677    0.80936    1.000
    Si1206   Si       0.07179    0.83033    0.81057    1.000
    N1207    N        0.00572    0.77450    0.79690    1.000
    N1208    N        0.17547    0.80016    0.82615    1.000
    Si1209   Si       0.21668    0.79365    0.83298    1.000
    N1210    N        0.23286    0.82210    0.85952    1.000
    Si1211   Si       0.14670    0.81354    0.74935    1.000
    N1212    N        0.14747    0.77392    0.76886    1.000
    N1213    N        0.17077    0.81171    0.89702    1.000
    N1214    N        0.02008    0.79136    0.86930    1.000
    N1215    N        0.09787    0.80400    0.87814    1.000
    Si1216   Si       0.07559    0.80576    0.91515    1.000
    N1217    N        0.11126    0.81611    0.94027    1.000
    Si1218   Si       0.13042    0.80078    0.97768    1.000
    Si1219   Si       0.20786    0.80272    0.98194    1.000
    Si1220   Si       0.13004    0.82315    0.90149    1.000
    N1221    N        0.17025    0.79155    0.96346    1.000
    Si1222   Si       0.17473    0.77554    0.92439    1.000
    N1223    N        0.08355    0.85624    0.05433    1.000
    Si1224   Si       0.04496    0.85911    0.03254    1.000
    Si1225   Si       0.09993    0.84504    0.09358    1.000
    N1226    N        0.00026    0.86141    0.10193    1.000
    Si1227   Si       0.10517    0.86143    0.01761    1.000
    N1228    N        0.22944    0.88335    0.21564    1.000
    N1229    N        0.06700    0.86083    0.99497    1.000
    N1230    N        0.16918    0.85699    0.05782    1.000
    N1231    N        0.13469    0.86409    0.11343    1.000
    Si1232   Si       0.21157    0.84856    0.04729    1.000
    Si1233   Si       0.16181    0.88697    0.08748    1.000
    Si1234   Si       0.22163    0.89070    0.17422    1.000
    N1235    N        0.06872    0.84495    0.12247    1.000
    N1236    N        0.05598    0.86403    0.19465    1.000
    Si1237   Si       0.09368    0.86678    0.21554    1.000
    Si1238   Si       0.05464    0.83450    0.16446    1.000
    Si1239   Si       0.14785    0.84862    0.15225    1.000
    N1240    N        0.12379    0.86910    0.18404    1.000
    N1241    N        0.18164    0.87566    0.16500    1.000
    N1242    N        0.03948    0.86976    0.27077    1.000
    Si1243   Si       0.01282    0.84282    0.35385    1.000
    Si1244   Si       0.99804    0.87611    0.26282    1.000
    N1245    N        0.02566    0.88042    0.34190    1.000
    Si1246   Si       0.05998    0.82957    0.26657    1.000
    Si1247   Si       0.21832    0.84779    0.29072    1.000
    N1248    N        0.17722    0.84144    0.30504    1.000
    Si1249   Si       0.17575    0.88701    0.30833    1.000
    N1250    N        0.20906    0.88910    0.28080    1.000
    N1251    N        0.07421    0.87593    0.38565    1.000
    Si1252   Si       0.04366    0.87447    0.41566    1.000
    Si1253   Si       0.01756    0.85846    0.48003    1.000
    N1254    N        0.05492    0.86456    0.45738    1.000
    N1255    N        0.01595    0.84523    0.39981    1.000
    Si1256   Si       0.09559    0.88482    0.46494    1.000
    N1257    N        0.11062    0.84380    0.45142    1.000
    Si1258   Si       0.14963    0.84234    0.43557    1.000
    N1259    N        0.14707    0.86126    0.39628    1.000
    N1260    N        0.17214    0.86842    0.46184    1.000
    N1261    N        0.21338    0.88587    0.40572    1.000
    Si1262   Si       0.18608    0.86238    0.37926    1.000
    Si1263   Si       0.11359    0.88819    0.39670    1.000
    N1264    N        0.99014    0.83198    0.45847    1.000
    N1265    N        0.08416    0.84705    0.55667    1.000
    Si1266   Si       0.00895    0.87184    0.60504    1.000
    N1267    N        0.01653    0.84569    0.52136    1.000
    Si1268   Si       0.08138    0.88825    0.56941    1.000
    N1269    N        0.17697    0.85694    0.62715    1.000
    Si1270   Si       0.16094    0.87872    0.50279    1.000
    Si1271   Si       0.23074    0.87995    0.53344    1.000
    N1272    N        0.15438    0.84129    0.53045    1.000
    N1273    N        0.22174    0.84109    0.51421    1.000
    Si1274   Si       0.21100    0.84644    0.60203    1.000
    N1275    N        0.22836    0.87504    0.57453    1.000
    N1276    N        0.99651    0.83539    0.73766    1.000
    Si1277   Si       0.04240    0.87030    0.67099    1.000
    Si1278   Si       0.00761    0.87771    0.73360    1.000
    N1279    N        0.06280    0.84346    0.69739    1.000
    N1280    N        0.02478    0.84741    0.63750    1.000
    N1281    N        0.10603    0.84888    0.64873    1.000
    N1282    N        0.00718    0.88783    0.69274    1.000
    Si1283   Si       0.14267    0.83052    0.63076    1.000
    N1284    N        0.07382    0.84556    0.77078    1.000
    Si1285   Si       0.09722    0.87510    0.86262    1.000
    Si1286   Si       0.02647    0.88197    0.83985    1.000
    N1287    N        0.02975    0.83975    0.82188    1.000
    N1288    N        0.10782    0.84810    0.82975    1.000
    N1289    N        0.12368    0.86565    0.89702    1.000
    N1290    N        0.15022    0.84516    0.77825    1.000
    N1291    N        0.17664    0.86445    0.84270    1.000
    Si1292   Si       0.14989    0.83818    0.82049    1.000
    N1293    N        0.21594    0.87168    0.89936    1.000
    N1294    N        0.05686    0.87111    0.87360    1.000
    N1295    N        0.04958    0.83798    0.92968    1.000
    Si1296   Si       0.06264    0.87237    0.95199    1.000
    Si1297   Si       0.02746    0.86658    0.90508    1.000
    Si1298   Si       0.19624    0.84080    0.87558    1.000
    N1299    N        0.21883    0.84047    0.96390    1.000
    Si1300   Si       0.20244    0.87274    0.93873    1.000
    Si1301   Si       0.03816    0.92985    0.02929    1.000
    N1302    N        0.02375    0.89326    0.04655    1.000
    Si1303   Si       0.98918    0.89037    0.07328    1.000
    N1304    N        0.06988    0.94418    0.05614    1.000
    N1305    N        0.11796    0.90556    0.01066    1.000
    Si1306   Si       0.14627    0.93369    0.02809    1.000
    N1307    N        0.15438    0.92870    0.07100    1.000
    N1308    N        0.18654    0.93411    0.01160    1.000
    N1309    N        0.20082    0.90372    0.10249    1.000
    Si1310   Si       0.18910    0.94524    0.09276    1.000
    Si1311   Si       0.04977    0.94783    0.16207    1.000
    N1312    N        0.01773    0.92066    0.15806    1.000
    N1313    N        0.99985    0.90298    0.22834    1.000
    Si1314   Si       0.98907    0.90450    0.18537    1.000
    N1315    N        0.08043    0.94700    0.19333    1.000
    N1316    N        0.08053    0.94524    0.12901    1.000
    Si1317   Si       0.00864    0.94463    0.24292    1.000
    Si1318   Si       0.15546    0.90223    0.18584    1.000
    N1319    N        0.14631    0.93835    0.16419    1.000
    N1320    N        0.16624    0.90950    0.22709    1.000
    N1321    N        0.22627    0.94795    0.23970    1.000
    Si1322   Si       0.20807    0.90841    0.24253    1.000
    N1323    N        0.21197    0.93560    0.17478    1.000
    Si1324   Si       0.06599    0.90163    0.27230    1.000
    N1325    N        0.07886    0.91189    0.31113    1.000
    N1326    N        0.04638    0.94111    0.35556    1.000
    Si1327   Si       0.06358    0.90006    0.34938    1.000
    N1328    N        0.04863    0.94061    0.26382    1.000
    N1329    N        0.11841    0.91824    0.36559    1.000
    Si1330   Si       0.12068    0.93624    0.32624    1.000
    N1331    N        0.14292    0.91215    0.29483    1.000
    Si1332   Si       0.13313    0.91938    0.25397    1.000
    N1333    N        0.18767    0.89514    0.34955    1.000
    N1334    N        0.10320    0.91283    0.43213    1.000
    N1335    N        0.02220    0.91265    0.41408    1.000
    N1336    N        0.99999    0.89873    0.47848    1.000
    Si1337   Si       0.00991    0.93715    0.38077    1.000
    Si1338   Si       0.99468    0.92558    0.44456    1.000
    Si1339   Si       0.20420    0.89624    0.44976    1.000
    Si1340   Si       0.21882    0.91702    0.37265    1.000
    N1341    N        0.18933    0.93475    0.44416    1.000
    N1342    N        0.12133    0.89866    0.49661    1.000
    N1343    N        0.09698    0.90124    0.24250    1.000
    N1344    N        0.07582    0.92199    0.54318    1.000
    N1345    N        0.00027    0.93894    0.54639    1.000
    Si1346   Si       0.04061    0.92268    0.62051    1.000
    N1347    N        0.10859    0.89961    0.60001    1.000
    Si1348   Si       0.11170    0.93193    0.52188    1.000
    N1349    N        0.19623    0.89972    0.51624    1.000
    Si1350   Si       0.13854    0.92858    0.59102    1.000
    Si1351   Si       0.18739    0.93664    0.53357    1.000
    N1352    N        0.14630    0.93082    0.54995    1.000
    N1353    N        0.17741    0.92141    0.60761    1.000
    N1354    N        0.22054    0.94528    0.56070    1.000
    N1355    N        0.04175    0.89272    0.58717    1.000
    N1356    N        0.99884    0.90902    0.62645    1.000
    N1357    N        0.06437    0.90696    0.65629    1.000
    N1358    N        0.10317    0.93827    0.71141    1.000
    Si1359   Si       0.06961    0.94475    0.68415    1.000
    Si1360   Si       0.10290    0.89261    0.64232    1.000
    Si1361   Si       0.14406    0.92838    0.69705    1.000
    N1362    N        0.16430    0.90102    0.72698    1.000
    N1363    N        0.22209    0.94484    0.73144    1.000
    N1364    N        0.20174    0.91801    0.67259    1.000
    Si1365   Si       0.17737    0.89811    0.64480    1.000
    N1366    N        0.13939    0.90718    0.66018    1.000
    Si1367   Si       0.07984    0.93674    0.82250    1.000
    N1368    N        0.05657    0.89897    0.81327    1.000
    N1369    N        0.10791    0.91449    0.84865    1.000
    Si1370   Si       0.03494    0.94502    0.75241    1.000
    N1371    N        0.11356    0.90847    0.77371    1.000
    N1372    N        0.98931    0.89735    0.81855    1.000
    N1373    N        0.13466    0.94033    0.90300    1.000
    N1374    N        0.04232    0.90179    0.74695    1.000
    N1375    N        0.23352    0.90433    0.84076    1.000
    N1376    N        0.18185    0.90637    0.78796    1.000
    Si1377   Si       0.19127    0.90321    0.83090    1.000
    N1378    N        0.17581    0.93898    0.85055    1.000
    Si1379   Si       0.20322    0.91098    0.74869    1.000
    Si1380   Si       0.13379    0.94707    0.85999    1.000
    Si1381   Si       0.01777    0.94662    0.87928    1.000
    Si1382   Si       0.02265    0.93504    0.95389    1.000
    N1383    N        0.00094    0.90491    0.87980    1.000
    N1384    N        0.05159    0.93169    0.98877    1.000
    Si1385   Si       0.09564    0.92870    0.98026    1.000
    N1386    N        0.09768    0.89826    0.94629    1.000
    N1387    N        0.02841    0.89680    0.93726    1.000
    Si1388   Si       0.19145    0.92726    0.96826    1.000
    N1389    N        0.16751    0.89784    0.94573    1.000
    Si1390   Si       0.13376    0.90042    0.92172    1.000
    N1391    N        0.22881    0.90545    0.95915    1.000
    Si1392   Si       0.07418    0.88864    0.77383    1.000
    Si1393   Si       0.14936    0.88646    0.76610    1.000
    N1394    N        0.02539    0.97723    0.09970    1.000
    Si1395   Si       0.08836    0.98038    0.03981    1.000
    Si1396   Si       0.06628    0.96495    0.09498    1.000
    N1397    N        0.00361    0.95719    0.03520    1.000
    N1398    N        0.08506    0.00005    0.07885    1.000
    Si1399   Si       0.99112    0.96305    0.07678    1.000
    N1400    N        0.06639    0.00428    0.01057    1.000
    N1401    N        0.12596    0.97153    0.02457    1.000
    Si1402   Si       0.21436    0.96425    0.02488    1.000
    N1403    N        0.19516    0.99937    0.01063    1.000
    N1404    N        0.22373    0.96179    0.06909    1.000
    Si1405   Si       0.22821    0.99658    0.09678    1.000
    N1406    N        0.01130    0.96630    0.20547    1.000
    N1407    N        0.05072    0.99303    0.16149    1.000
    Si1408   Si       0.08106    0.95892    0.23619    1.000
    N1409    N        0.06776    0.00206    0.23598    1.000
    Si1410   Si       0.03842    0.00009    0.20379    1.000
    N1411    N        0.18274    0.99881    0.18713    1.000
    Si1412   Si       0.10805    0.95788    0.16210    1.000
    Si1413   Si       0.02196    0.00640    0.13158    1.000
    N1414    N        0.19482    0.97788    0.12146    1.000
    N1415    N        0.11790    0.99917    0.16221    1.000
    Si1416   Si       0.18093    0.96487    0.16118    1.000
    N1417    N        0.09083    0.97308    0.32517    1.000
    N1418    N        0.02343    0.98200    0.31294    1.000
    Si1419   Si       0.05637    0.95241    0.31166    1.000
    N1420    N        0.15244    0.96987    0.33324    1.000
    Si1421   Si       0.22431    0.97521    0.27085    1.000
    Si1422   Si       0.19006    0.97895    0.31750    1.000
    N1423    N        0.18285    0.98720    0.27450    1.000
    N1424    N        0.22765    0.95570    0.31004    1.000
    Si1425   Si       0.14267    0.99726    0.26124    1.000
    N1426    N        0.11989    0.96111    0.25136    1.000
    Si1427   Si       0.12342    0.00313    0.32963    1.000
    Si1428   Si       0.23344    0.99042    0.36687    1.000
    Si1429   Si       0.05195    0.98305    0.36853    1.000
    N1430    N        0.00141    0.96362    0.46738    1.000
    N1431    N        0.08163    0.98854    0.40092    1.000
    Si1432   Si       0.03609    0.98351    0.48146    1.000
    N1433    N        0.01104    0.98048    0.38902    1.000
    N1434    N        0.07279    0.97235    0.45986    1.000
    Si1435   Si       0.09887    0.95578    0.42882    1.000
    N1436    N        0.20637    0.99364    0.44390    1.000
    Si1437   Si       0.21052    0.96036    0.47246    1.000
    Si1438   Si       0.18186    0.96623    0.41524    1.000
    N1439    N        0.20926    0.95745    0.38231    1.000
    N1440    N        0.13832    0.97542    0.42239    1.000
    N1441    N        0.04715    0.97945    0.52291    1.000
    Si1442   Si       0.08275    0.98575    0.60964    1.000
    N1443    N        0.04864    0.95677    0.59469    1.000
    Si1444   Si       0.08414    0.00200    0.52848    1.000
    Si1445   Si       0.04164    0.94815    0.55267    1.000
    N1446    N        0.11659    0.97683    0.51694    1.000
    N1447    N        0.12308    0.96692    0.60407    1.000
    Si1448   Si       0.15584    0.99654    0.51719    1.000
    N1449    N        0.18740    0.96841    0.50622    1.000
    Si1450   Si       0.15444    0.99676    0.59777    1.000
    N1451    N        0.19356    0.98627    0.61428    1.000
    Si1452   Si       0.21169    0.94520    0.60383    1.000
    Si1453   Si       0.00154    0.98123    0.69565    1.000
    N1454    N        0.07708    0.97740    0.65739    1.000
    N1455    N        0.03720    0.96116    0.71240    1.000
    N1456    N        0.16700    0.96594    0.69973    1.000
    N1457    N        0.23515    0.97675    0.66313    1.000
    Si1458   Si       0.15382    0.99925    0.72527    1.000
    Si1459   Si       0.20902    0.95470    0.69226    1.000
    Si1460   Si       0.07246    0.99366    0.83936    1.000
    N1461    N        0.05081    0.95667    0.84957    1.000
    N1462    N        0.06869    0.95511    0.77836    1.000
    N1463    N        0.99518    0.95344    0.76756    1.000
    N1464    N        0.11252    0.97315    0.82855    1.000
    Si1465   Si       0.20334    0.97488    0.84845    1.000
    Si1466   Si       0.14373    0.99078    0.80110    1.000
    N1467    N        0.13491    0.97901    0.76007    1.000
    N1468    N        0.18482    0.98968    0.81021    1.000
    N1469    N        0.02110    0.96165    0.91868    1.000
    N1470    N        0.00372    0.99735    0.97306    1.000
    Si1471   Si       0.99930    0.00136    0.93024    1.000
    N1472    N        0.10781    0.96778    0.96064    1.000
    N1473    N        0.20779    0.98926    0.88870    1.000
    Si1474   Si       0.14126    0.97105    0.93217    1.000
    N1475    N        0.18209    0.96755    0.95248    1.000
    Si1476   Si       0.20630    0.00241    0.96668    1.000
    Si1477   Si       0.09697    0.00647    0.97869    1.000
    Si1478   Si       0.10566    0.94772    0.75384    1.000
    Si1479   Si       0.34941    0.03326    0.09652    1.000
    N1480    N        0.32270    0.03578    0.06183    1.000
    N1481    N        0.26611    0.06283    0.03274    1.000
    N1482    N        0.39122    0.02939    0.08871    1.000
    N1483    N        0.43188    0.03294    0.03454    1.000
    N1484    N        0.44967    0.03826    0.10815    1.000
    Si1485   Si       0.41832    0.06542    0.09372    1.000
    Si1486   Si       0.26492    0.04292    0.13556    1.000
    N1487    N        0.29472    0.04870    0.16705    1.000
    N1488    N        0.31816    0.01927    0.22875    1.000
    Si1489   Si       0.32314    0.04914    0.19681    1.000
    N1490    N        0.36389    0.04458    0.18125    1.000
    Si1491   Si       0.46826    0.05793    0.21085    1.000
    N1492    N        0.43324    0.03189    0.20005    1.000
    Si1493   Si       0.39192    0.03190    0.21250    1.000
    N1494    N        0.38916    0.06758    0.23812    1.000
    N1495    N        0.48304    0.00858    0.16253    1.000
    Si1496   Si       0.29137    0.02375    0.26353    1.000
    N1497    N        0.30870    0.04029    0.36468    1.000
    N1498    N        0.24920    0.01006    0.26418    1.000
    Si1499   Si       0.42847    0.05089    0.37227    1.000
    N1500    N        0.44541    0.02488    0.34437    1.000
    N1501    N        0.42503    0.01953    0.27938    1.000
    Si1502   Si       0.46123    0.01649    0.30292    1.000
    Si1503   Si       0.41969    0.06089    0.26796    1.000
    Si1504   Si       0.24337    0.02168    0.44105    1.000
    N1505    N        0.24362    0.01898    0.39685    1.000
    N1506    N        0.28555    0.05822    0.42272    1.000
    Si1507   Si       0.27146    0.04922    0.38231    1.000
    N1508    N        0.33905    0.01723    0.41959    1.000
    Si1509   Si       0.34408    0.04705    0.38716    1.000
    Si1510   Si       0.31089    0.03313    0.44887    1.000
    N1511    N        0.32893    0.05487    0.48386    1.000
    Si1512   Si       0.48230    0.04809    0.48895    1.000
    N1513    N        0.43523    0.04188    0.41402    1.000
    N1514    N        0.38412    0.05766    0.36958    1.000
    N1515    N        0.27658    0.06586    0.26454    1.000
    N1516    N        0.27450    0.05000    0.56756    1.000
    Si1517   Si       0.25285    0.03469    0.53275    1.000
    Si1518   Si       0.27340    0.02837    0.60639    1.000
    Si1519   Si       0.35360    0.04069    0.51820    1.000
    Si1520   Si       0.34905    0.02285    0.59931    1.000
    N1521    N        0.35074    0.04949    0.55973    1.000
    N1522    N        0.26474    0.06125    0.49973    1.000
    N1523    N        0.36579    0.06237    0.61790    1.000
    N1524    N        0.47230    0.04444    0.57982    1.000
    N1525    N        0.47166    0.01335    0.51408    1.000
    N1526    N        0.39395    0.04092    0.50050    1.000
    N1527    N        0.31132    0.01994    0.62269    1.000
    Si1528   Si       0.34190    0.04235    0.72392    1.000
    N1529    N        0.34000    0.03566    0.68180    1.000
    Si1530   Si       0.27013    0.01692    0.73970    1.000
    N1531    N        0.24817    0.04468    0.71459    1.000
    Si1532   Si       0.36447    0.06545    0.66019    1.000
    Si1533   Si       0.47157    0.04304    0.62284    1.000
    N1534    N        0.37235    0.01468    0.73918    1.000
    Si1535   Si       0.41111    0.01473    0.65864    1.000
    N1536    N        0.40462    0.05688    0.67109    1.000
    N1537    N        0.44464    0.00951    0.63173    1.000
    N1538    N        0.23774    0.04097    0.62712    1.000
    Si1539   Si       0.48474    0.01102    0.55604    1.000
    Si1540   Si       0.30691    0.04068    0.79537    1.000
    N1541    N        0.24749    0.01001    0.77535    1.000
    N1542    N        0.30737    0.03604    0.75149    1.000
    Si1543   Si       0.40721    0.02427    0.76420    1.000
    N1544    N        0.47016    0.02148    0.82580    1.000
    N1545    N        0.39199    0.05784    0.84166    1.000
    Si1546   Si       0.39560    0.01534    0.83875    1.000
    Si1547   Si       0.47415    0.00847    0.78460    1.000
    N1548    N        0.40623    0.06458    0.77862    1.000
    Si1549   Si       0.47889    0.06213    0.84660    1.000
    N1550    N        0.42392    0.00999    0.87417    1.000
    N1551    N        0.25035    0.03994    0.90035    1.000
    N1552    N        0.33154    0.05149    0.88098    1.000
    Si1553   Si       0.33154    0.03510    0.97809    1.000
    N1554    N        0.31134    0.03715    0.93881    1.000
    Si1555   Si       0.26710    0.03474    0.94073    1.000
    Si1556   Si       0.32473    0.01287    0.90041    1.000
    Si1557   Si       0.40939    0.05609    0.96674    1.000
    N1558    N        0.44329    0.02671    0.96990    1.000
    Si1559   Si       0.43280    0.04897    0.88920    1.000
    N1560    N        0.47906    0.03852    0.88682    1.000
    N1561    N        0.37457    0.03117    0.97439    1.000
    N1562    N        0.41086    0.06638    0.92408    1.000
    N1563    N        0.31340    0.10484    0.06203    1.000
    Si1564   Si       0.30895    0.09388    0.10540    1.000
    Si1565   Si       0.25145    0.08821    0.99985    1.000
    Si1566   Si       0.30998    0.06860    0.03802    1.000
    N1567    N        0.26934    0.07200    0.10436    1.000
    N1568    N        0.34406    0.07027    0.11842    1.000
    Si1569   Si       0.24393    0.06580    0.07103    1.000
    N1570    N        0.32436    0.07500    0.99725    1.000
    N1571    N        0.42443    0.09421    0.06124    1.000
    Si1572   Si       0.44082    0.07404    0.02512    1.000
    N1573    N        0.48308    0.08324    0.01673    1.000
    N1574    N        0.47121    0.12259    0.12401    1.000
    N1575    N        0.32242    0.08591    0.22051    1.000
    N1576    N        0.25752    0.11385    0.21457    1.000
    Si1577   Si       0.28901    0.10200    0.24244    1.000
    Si1578   Si       0.36412    0.09935    0.22116    1.000
    Si1579   Si       0.37140    0.07577    0.15162    1.000
    N1580    N        0.40892    0.08972    0.13038    1.000
    N1581    N        0.36282    0.10882    0.17841    1.000
    N1582    N        0.47066    0.09570    0.18772    1.000
    Si1583   Si       0.25932    0.11325    0.35717    1.000
    N1584    N        0.24828    0.07187    0.35402    1.000
    Si1585   Si       0.48341    0.09840    0.37730    1.000
    N1586    N        0.44400    0.09025    0.36064    1.000
    N1587    N        0.42170    0.09434    0.29523    1.000
    Si1588   Si       0.42405    0.11526    0.33419    1.000
    Si1589   Si       0.45422    0.11398    0.27131    1.000
    N1590    N        0.45696    0.07580    0.24864    1.000
    N1591    N        0.38515    0.12520    0.35079    1.000
    N1592    N        0.28809    0.11110    0.46132    1.000
    Si1593   Si       0.30383    0.09837    0.42252    1.000
    N1594    N        0.34250    0.08927    0.40686    1.000
    N1595    N        0.28598    0.12175    0.39151    1.000
    N1596    N        0.44808    0.07029    0.47407    1.000
    N1597    N        0.40964    0.10926    0.41755    1.000
    Si1598   Si       0.44240    0.08151    0.43285    1.000
    N1599    N        0.47719    0.10494    0.41858    1.000
    Si1600   Si       0.38004    0.10041    0.38675    1.000
    Si1601   Si       0.28186    0.09085    0.57157    1.000
    N1602    N        0.30170    0.10433    0.53472    1.000
    N1603    N        0.31527    0.10025    0.59967    1.000
    Si1604   Si       0.35363    0.08603    0.58271    1.000
    N1605    N        0.24503    0.10493    0.58922    1.000
    Si1606   Si       0.30049    0.08576    0.49596    1.000
    N1607    N        0.48629    0.11434    0.58127    1.000
    N1608    N        0.43609    0.08710    0.53954    1.000
    Si1609   Si       0.47490    0.07997    0.55675    1.000
    N1610    N        0.38654    0.11123    0.50721    1.000
    Si1611   Si       0.41523    0.07741    0.50222    1.000
    N1612    N        0.37634    0.12117    0.57263    1.000
    Si1613   Si       0.40888    0.12136    0.54601    1.000
    N1614    N        0.34230    0.10225    0.66886    1.000
    N1615    N        0.35164    0.08279    0.73390    1.000
    Si1616   Si       0.35041    0.12028    0.70821    1.000
    N1617    N        0.41178    0.11872    0.64260    1.000
    Si1618   Si       0.43159    0.08983    0.66688    1.000
    N1619    N        0.44824    0.10421    0.70435    1.000
    N1620    N        0.46506    0.08244    0.63959    1.000
    Si1621   Si       0.49056    0.10188    0.71552    1.000
    Si1622   Si       0.30712    0.09877    0.80946    1.000
    N1623    N        0.32469    0.10958    0.84599    1.000
    Si1624   Si       0.35141    0.07326    0.84933    1.000
    N1625    N        0.27617    0.07004    0.80545    1.000
    N1626    N        0.33934    0.06801    0.80392    1.000
    Si1627   Si       0.36790    0.08668    0.77388    1.000
    N1628    N        0.44223    0.08324    0.86245    1.000
    N1629    N        0.46742    0.08648    0.80662    1.000
    Si1630   Si       0.42501    0.07831    0.81706    1.000
    Si1631   Si       0.41677    0.11744    0.86219    1.000
    N1632    N        0.41431    0.12138    0.81746    1.000
    N1633    N        0.28312    0.09762    0.90719    1.000
    Si1634   Si       0.24608    0.08355    0.89337    1.000
    Si1635   Si       0.31821    0.07399    0.91679    1.000
    Si1636   Si       0.33076    0.11486    0.97729    1.000
    N1637    N        0.34734    0.09653    0.93925    1.000
    N1638    N        0.25311    0.06722    0.96301    1.000
    N1639    N        0.41625    0.08956    0.99279    1.000
    N1640    N        0.37804    0.11194    0.88268    1.000
    Si1641   Si       0.38739    0.10204    0.92336    1.000
    N1642    N        0.26400    0.14630    0.08527    1.000
    N1643    N        0.30545    0.16919    0.02811    1.000
    Si1644   Si       0.28767    0.13665    0.05103    1.000
    Si1645   Si       0.34714    0.17661    0.01363    1.000
    N1646    N        0.26188    0.12763    0.01531    1.000
    N1647    N        0.41504    0.15398    0.09519    1.000
    N1648    N        0.47540    0.14018    0.06114    1.000
    N1649    N        0.42651    0.15535    0.01735    1.000
    Si1650   Si       0.43208    0.13676    0.05800    1.000
    Si1651   Si       0.27854    0.15954    0.12301    1.000
    N1652    N        0.24785    0.15837    0.15450    1.000
    N1653    N        0.31092    0.15310    0.19855    1.000
    Si1654   Si       0.26545    0.15215    0.19486    1.000
    Si1655   Si       0.33600    0.13836    0.16426    1.000
    Si1656   Si       0.32984    0.16109    0.23610    1.000
    N1657    N        0.30682    0.12876    0.13386    1.000
    N1658    N        0.24011    0.18112    0.21772    1.000
    N1659    N        0.36120    0.17286    0.15495    1.000
    N1660    N        0.36753    0.13952    0.23823    1.000
    Si1661   Si       0.40155    0.16418    0.24437    1.000
    Si1662   Si       0.45814    0.18571    0.15760    1.000
    N1663    N        0.43844    0.14203    0.23940    1.000
    N1664    N        0.42949    0.15141    0.16705    1.000
    Si1665   Si       0.39728    0.18070    0.17338    1.000
    N1666    N        0.48609    0.16580    0.18651    1.000
    Si1667   Si       0.45510    0.13428    0.19862    1.000
    Si1668   Si       0.42781    0.12783    0.12961    1.000
    Si1669   Si       0.30128    0.16398    0.30004    1.000
    N1670    N        0.30409    0.13824    0.26300    1.000
    N1671    N        0.34004    0.17120    0.31738    1.000
    N1672    N        0.28114    0.14379    0.33414    1.000
    Si1673   Si       0.36815    0.16392    0.35156    1.000
    N1674    N        0.44797    0.14910    0.31868    1.000
    Si1675   Si       0.49147    0.14617    0.32083    1.000
    Si1676   Si       0.42570    0.18475    0.31517    1.000
    Si1677   Si       0.30133    0.15685    0.37063    1.000
    N1678    N        0.34202    0.16582    0.38393    1.000
    Si1679   Si       0.25303    0.13432    0.46819    1.000
    N1680    N        0.26532    0.17209    0.48893    1.000
    Si1681   Si       0.37454    0.15161    0.49172    1.000
    N1682    N        0.43289    0.14651    0.47523    1.000
    Si1683   Si       0.41475    0.14864    0.43601    1.000
    Si1684   Si       0.46616    0.16429    0.49346    1.000
    N1685    N        0.37457    0.16127    0.44837    1.000
    N1686    N        0.43643    0.17668    0.41228    1.000
    N1687    N        0.48973    0.16679    0.45393    1.000
    Si1688   Si       0.31187    0.14786    0.53819    1.000
    N1689    N        0.27269    0.16245    0.55514    1.000
    N1690    N        0.33731    0.17429    0.56239    1.000
    N1691    N        0.33098    0.15266    0.49870    1.000
    Si1692   Si       0.23983    0.14650    0.58045    1.000
    Si1693   Si       0.36689    0.15961    0.58782    1.000
    Si1694   Si       0.47882    0.14817    0.55751    1.000
    N1695    N        0.43862    0.15470    0.54740    1.000
    N1696    N        0.23909    0.14767    0.69525    1.000
    Si1697   Si       0.28526    0.15873    0.69635    1.000
    N1698    N        0.28894    0.14475    0.65512    1.000
    N1699    N        0.35472    0.15328    0.62916    1.000
    N1700    N        0.31633    0.14187    0.72310    1.000
    Si1701   Si       0.24650    0.14140    0.64909    1.000
    Si1702   Si       0.32168    0.12456    0.63606    1.000
    N1703    N        0.38564    0.14179    0.70042    1.000
    N1704    N        0.45122    0.17089    0.69966    1.000
    Si1705   Si       0.38794    0.15300    0.65737    1.000
    Si1706   Si       0.42743    0.13805    0.71778    1.000
    N1707    N        0.48490    0.15644    0.64215    1.000
    Si1708   Si       0.24312    0.18154    0.52643    1.000
    Si1709   Si       0.32214    0.15086    0.76486    1.000
    Si1710   Si       0.25274    0.14688    0.79281    1.000
    N1711    N        0.24583    0.15659    0.83414    1.000
    N1712    N        0.29244    0.13181    0.78710    1.000
    N1713    N        0.35949    0.13054    0.77788    1.000
    N1714    N        0.25583    0.17767    0.76052    1.000
    Si1715   Si       0.34764    0.13854    0.86838    1.000
    N1716    N        0.36975    0.16740    0.84345    1.000
    Si1717   Si       0.38676    0.15333    0.80567    1.000
    N1718    N        0.43128    0.14965    0.75981    1.000
    Si1719   Si       0.47141    0.16128    0.85679    1.000
    N1720    N        0.47367    0.15667    0.81438    1.000
    Si1721   Si       0.45456    0.12574    0.78946    1.000
    N1722    N        0.32136    0.15795    0.89601    1.000
    Si1723   Si       0.28919    0.14130    0.91917    1.000
    N1724    N        0.25685    0.16914    0.90230    1.000
    N1725    N        0.29724    0.14163    0.96241    1.000
    Si1726   Si       0.27717    0.16325    0.99446    1.000
    N1727    N        0.36187    0.13932    0.99493    1.000
    Si1728   Si       0.40341    0.13089    0.98846    1.000
    N1729    N        0.43406    0.15400    0.87810    1.000
    N1730    N        0.40467    0.13612    0.94385    1.000
    N1731    N        0.47251    0.14688    0.93311    1.000
    Si1732   Si       0.43193    0.15990    0.92102    1.000
    N1733    N        0.30375    0.19711    0.11429    1.000
    Si1734   Si       0.28988    0.23862    0.10763    1.000
    N1735    N        0.37194    0.21848    0.10609    1.000
    N1736    N        0.43272    0.21169    0.06029    1.000
    Si1737   Si       0.39687    0.19164    0.08224    1.000
    Si1738   Si       0.41578    0.19676    0.02189    1.000
    N1739    N        0.37622    0.19033    0.04253    1.000
    N1740    N        0.47907    0.18981    0.11992    1.000
    N1741    N        0.28782    0.23318    0.21206    1.000
    Si1742   Si       0.34247    0.20471    0.13370    1.000
    Si1743   Si       0.24452    0.22268    0.21367    1.000
    N1744    N        0.34000    0.23399    0.16373    1.000
    Si1745   Si       0.42015    0.23187    0.20185    1.000
    N1746    N        0.42495    0.21533    0.16234    1.000
    N1747    N        0.45830    0.23792    0.21801    1.000
    N1748    N        0.39808    0.19504    0.21405    1.000
    N1749    N        0.28165    0.20162    0.29058    1.000
    Si1750   Si       0.29848    0.22728    0.25466    1.000
    N1751    N        0.33359    0.20256    0.25504    1.000
    Si1752   Si       0.35908    0.20203    0.29213    1.000
    Si1753   Si       0.23981    0.21444    0.28914    1.000
    N1754    N        0.24264    0.23807    0.25353    1.000
    N1755    N        0.45276    0.21784    0.30990    1.000
    N1756    N        0.40202    0.19091    0.34952    1.000
    N1757    N        0.39691    0.18360    0.28303    1.000
    N1758    N        0.25712    0.22705    0.44661    1.000
    Si1759   Si       0.28792    0.21948    0.41401    1.000
    N1760    N        0.31545    0.19566    0.44182    1.000
    Si1761   Si       0.35307    0.18764    0.42002    1.000
    N1762    N        0.27510    0.18660    0.38690    1.000
    Si1763   Si       0.30642    0.18363    0.48031    1.000
    N1764    N        0.38227    0.21706    0.40798    1.000
    Si1765   Si       0.41816    0.20771    0.38741    1.000
    N1766    N        0.46409    0.23291    0.44269    1.000
    Si1767   Si       0.47519    0.19362    0.42505    1.000
    Si1768   Si       0.23644    0.19288    0.46250    1.000
    N1769    N        0.35473    0.24173    0.31051    1.000
    N1770    N        0.44123    0.24416    0.37912    1.000
    N1771    N        0.31415    0.21429    0.50937    1.000
    Si1772   Si       0.34982    0.20438    0.53480    1.000
    N1773    N        0.24448    0.22413    0.53263    1.000
    N1774    N        0.46217    0.23586    0.68126    1.000
    Si1775   Si       0.42062    0.19552    0.54031    1.000
    N1776    N        0.45112    0.22338    0.60927    1.000
    N1777    N        0.45510    0.20391    0.50328    1.000
    N1778    N        0.39928    0.18683    0.58248    1.000
    N1779    N        0.38564    0.18645    0.51626    1.000
    N1780    N        0.42946    0.23936    0.55152    1.000
    Si1781   Si       0.40986    0.21250    0.61676    1.000
    Si1782   Si       0.48201    0.19445    0.61973    1.000
    Si1783   Si       0.25308    0.22985    0.69018    1.000
    N1784    N        0.28271    0.20021    0.70599    1.000
    N1785    N        0.24174    0.22731    0.64903    1.000
    N1786    N        0.41020    0.21402    0.72512    1.000
    Si1787   Si       0.43155    0.20821    0.68800    1.000
    N1788    N        0.40869    0.19078    0.65449    1.000
    N1789    N        0.32455    0.19450    0.76744    1.000
    N1790    N        0.34316    0.22853    0.82923    1.000
    Si1791   Si       0.35392    0.21899    0.78790    1.000
    N1792    N        0.28525    0.21462    0.86239    1.000
    Si1793   Si       0.28654    0.20699    0.74958    1.000
    Si1794   Si       0.25032    0.18902    0.86261    1.000
    N1795    N        0.38702    0.19168    0.78679    1.000
    Si1796   Si       0.42281    0.19438    0.76110    1.000
    N1797    N        0.41284    0.23213    0.86068    1.000
    Si1798   Si       0.37550    0.21076    0.85441    1.000
    N1799    N        0.45517    0.21543    0.78047    1.000
    N1800    N        0.47968    0.20103    0.86793    1.000
    N1801    N        0.26056    0.20200    0.98325    1.000
    Si1802   Si       0.25113    0.20231    0.93820    1.000
    N1803    N        0.29809    0.21436    0.93052    1.000
    Si1804   Si       0.31360    0.20006    0.89355    1.000
    N1805    N        0.35320    0.21992    0.89161    1.000
    N1806    N        0.34307    0.20775    0.98503    1.000
    Si1807   Si       0.32116    0.23817    0.95998    1.000
    N1808    N        0.41858    0.22809    0.99316    1.000
    Si1809   Si       0.44323    0.22500    0.95784    1.000
    Si1810   Si       0.44497    0.21995    0.88762    1.000
    N1811    N        0.42938    0.20301    0.92528    1.000
    N1812    N        0.48243    0.20563    0.96662    1.000
    N1813    N        0.32074    0.26639    0.09718    1.000
    N1814    N        0.25550    0.25133    0.08210    1.000
    Si1815   Si       0.24805    0.28297    0.05260    1.000
    N1816    N        0.39601    0.26860    0.20243    1.000
    Si1817   Si       0.36341    0.26201    0.09976    1.000
    N1818    N        0.47720    0.25737    0.09905    1.000
    N1819    N        0.38129    0.27650    0.06390    1.000
    N1820    N        0.44196    0.27805    0.03867    1.000
    Si1821   Si       0.47768    0.29892    0.10822    1.000
    Si1822   Si       0.41800    0.29756    0.06740    1.000
    N1823    N        0.27479    0.24736    0.14773    1.000
    Si1824   Si       0.30407    0.25375    0.17818    1.000
    N1825    N        0.32730    0.29244    0.18289    1.000
    N1826    N        0.24462    0.29871    0.21887    1.000
    Si1827   Si       0.48743    0.25866    0.24070    1.000
    Si1828   Si       0.36402    0.27067    0.17264    1.000
    N1829    N        0.37833    0.28708    0.13432    1.000
    Si1830   Si       0.46164    0.24461    0.05881    1.000
    Si1831   Si       0.42878    0.27291    0.99797    1.000
    Si1832   Si       0.32361    0.27565    0.30081    1.000
    N1833    N        0.29592    0.27504    0.33270    1.000
    N1834    N        0.29842    0.26817    0.26774    1.000
    Si1835   Si       0.25219    0.28623    0.32464    1.000
    Si1836   Si       0.25841    0.27971    0.25477    1.000
    Si1837   Si       0.45531    0.24304    0.48652    1.000
    N1838    N        0.42353    0.27944    0.31516    1.000
    Si1839   Si       0.38238    0.27277    0.32545    1.000
    N1840    N        0.47076    0.29051    0.26233    1.000
    Si1841   Si       0.44949    0.25236    0.33673    1.000
    N1842    N        0.37792    0.27900    0.36898    1.000
    Si1843   Si       0.29572    0.27367    0.37710    1.000
    N1844    N        0.25794    0.25381    0.38210    1.000
    N1845    N        0.24805    0.29202    0.43289    1.000
    N1846    N        0.27393    0.27307    0.49316    1.000
    N1847    N        0.31971    0.24381    0.39790    1.000
    Si1848   Si       0.24064    0.26438    0.46528    1.000
    Si1849   Si       0.36235    0.25669    0.40291    1.000
    N1850    N        0.41808    0.26449    0.49256    1.000
    N1851    N        0.37194    0.27856    0.43877    1.000
    Si1852   Si       0.46053    0.26522    0.41376    1.000
    N1853    N        0.44101    0.29602    0.43735    1.000
    Si1854   Si       0.40490    0.29230    0.46236    1.000
    Si1855   Si       0.34022    0.28182    0.55455    1.000
    N1856    N        0.29820    0.26685    0.55324    1.000
    N1857    N        0.27217    0.28416    0.61466    1.000
    N1858    N        0.33664    0.29535    0.59495    1.000
    Si1859   Si       0.27419    0.29692    0.57378    1.000
    Si1860   Si       0.28339    0.24181    0.52285    1.000
    N1861    N        0.33770    0.30512    0.51793    1.000
    N1862    N        0.38293    0.24506    0.61997    1.000
    N1863    N        0.45598    0.29720    0.58252    1.000
    Si1864   Si       0.40266    0.26573    0.53345    1.000
    Si1865   Si       0.46080    0.25365    0.57917    1.000
    N1866    N        0.36393    0.24620    0.54414    1.000
    Si1867   Si       0.34346    0.29457    0.69451    1.000
    N1868    N        0.25626    0.27048    0.69860    1.000
    Si1869   Si       0.27894    0.28151    0.73380    1.000
    N1870    N        0.33474    0.28186    0.65608    1.000
    N1871    N        0.32108    0.29290    0.73191    1.000
    Si1872   Si       0.36744    0.28518    0.62640    1.000
    Si1873   Si       0.39571    0.25338    0.73496    1.000
    N1874    N        0.38086    0.27662    0.70195    1.000
    Si1875   Si       0.30794    0.30245    0.62932    1.000
    N1876    N        0.43526    0.27616    0.74340    1.000
    Si1877   Si       0.25764    0.27434    0.79217    1.000
    N1878    N        0.28271    0.27610    0.82659    1.000
    Si1879   Si       0.34830    0.29499    0.76720    1.000
    N1880    N        0.27783    0.24800    0.76064    1.000
    Si1881   Si       0.30853    0.24714    0.84642    1.000
    N1882    N        0.36736    0.25606    0.76797    1.000
    Si1883   Si       0.46623    0.25248    0.76267    1.000
    N1884    N        0.47821    0.27717    0.79483    1.000
    Si1885   Si       0.42410    0.27663    0.87295    1.000
    N1886    N        0.38751    0.29065    0.88933    1.000
    N1887    N        0.23695    0.24442    0.94142    1.000
    Si1888   Si       0.25350    0.24563    0.98393    1.000
    N1889    N        0.32437    0.27750    0.87525    1.000
    N1890    N        0.29284    0.26427    0.98524    1.000
    N1891    N        0.34891    0.26978    0.94510    1.000
    Si1892   Si       0.35583    0.26333    0.90160    1.000
    Si1893   Si       0.47294    0.28058    0.93163    1.000
    N1894    N        0.45407    0.25889    0.89961    1.000
    N1895    N        0.45997    0.26443    0.96936    1.000
    N1896    N        0.34407    0.33058    0.07601    1.000
    N1897    N        0.28023    0.32734    0.11240    1.000
    Si1898   Si       0.30631    0.30735    0.08298    1.000
    N1899    N        0.34424    0.30638    0.00402    1.000
    Si1900   Si       0.30138    0.30070    0.00406    1.000
    Si1901   Si       0.36564    0.31051    0.04208    1.000
    N1902    N        0.40331    0.33653    0.05182    1.000
    N1903    N        0.43552    0.31038    0.10516    1.000
    Si1904   Si       0.37522    0.35826    0.08027    1.000
    N1905    N        0.45848    0.34381    0.00139    1.000
    Si1906   Si       0.43490    0.35988    0.03450    1.000
    N1907    N        0.38952    0.35869    0.12310    1.000
    Si1908   Si       0.26225    0.33716    0.21440    1.000
    Si1909   Si       0.32866    0.33431    0.19711    1.000
    N1910    N        0.30233    0.34385    0.23071    1.000
    N1911    N        0.26356    0.35322    0.17525    1.000
    N1912    N        0.32832    0.35973    0.16157    1.000
    Si1913   Si       0.29079    0.35837    0.14050    1.000
    N1914    N        0.42227    0.32326    0.17661    1.000
    N1915    N        0.47303    0.34991    0.21321    1.000
    N1916    N        0.36937    0.34085    0.21205    1.000
    Si1917   Si       0.40557    0.31866    0.13627    1.000
    Si1918   Si       0.46085    0.33972    0.17128    1.000
    Si1919   Si       0.40252    0.30955    0.21264    1.000
    N1920    N        0.28720    0.29780    0.04503    1.000
    Si1921   Si       0.25082    0.35187    0.28490    1.000
    N1922    N        0.25130    0.30788    0.28812    1.000
    Si1923   Si       0.36391    0.34627    0.31937    1.000
    N1924    N        0.35488    0.30350    0.30922    1.000
    Si1925   Si       0.44399    0.35134    0.34821    1.000
    N1926    N        0.39879    0.34724    0.34196    1.000
    N1927    N        0.45965    0.33712    0.31013    1.000
    N1928    N        0.41335    0.32472    0.25464    1.000
    Si1929   Si       0.43884    0.30733    0.28602    1.000
    Si1930   Si       0.39006    0.35970    0.24761    1.000
    N1931    N        0.25230    0.35293    0.43591    1.000
    Si1932   Si       0.35585    0.31851    0.44300    1.000
    Si1933   Si       0.28086    0.32000    0.43138    1.000
    Si1934   Si       0.32950    0.34732    0.38668    1.000
    N1935    N        0.30239    0.31303    0.39381    1.000
    N1936    N        0.31501    0.32004    0.45689    1.000
    N1937    N        0.33446    0.36492    0.34701    1.000
    N1938    N        0.36675    0.33627    0.40584    1.000
    N1939    N        0.38352    0.33051    0.47499    1.000
    N1940    N        0.43918    0.32655    0.38234    1.000
    Si1941   Si       0.39403    0.31867    0.37632    1.000
    Si1942   Si       0.45334    0.33600    0.42268    1.000
    N1943    N        0.28417    0.34017    0.57476    1.000
    N1944    N        0.27411    0.33784    0.51018    1.000
    Si1945   Si       0.37126    0.33363    0.51862    1.000
    Si1946   Si       0.41828    0.32029    0.58317    1.000
    N1947    N        0.39492    0.30638    0.54657    1.000
    Si1948   Si       0.24219    0.34219    0.73951    1.000
    N1949    N        0.29624    0.33896    0.64713    1.000
    N1950    N        0.35202    0.33733    0.68825    1.000
    Si1951   Si       0.25876    0.34621    0.67419    1.000
    N1952    N        0.27638    0.35582    0.71292    1.000
    Si1953   Si       0.39154    0.36091    0.62594    1.000
    Si1954   Si       0.38361    0.34636    0.71581    1.000
    N1955    N        0.48199    0.30468    0.70161    1.000
    N1956    N        0.39530    0.31624    0.62078    1.000
    Si1957   Si       0.45419    0.31306    0.73316    1.000
    N1958    N        0.42850    0.34385    0.71488    1.000
    Si1959   Si       0.30061    0.30789    0.49645    1.000
    N1960    N        0.33464    0.31350    0.80731    1.000
    Si1961   Si       0.35760    0.34672    0.82224    1.000
    N1962    N        0.28023    0.33726    0.86133    1.000
    N1963    N        0.34410    0.34331    0.86596    1.000
    N1964    N        0.25398    0.30622    0.75929    1.000
    Si1965   Si       0.30864    0.30826    0.84464    1.000
    N1966    N        0.39918    0.34029    0.81722    1.000
    N1967    N        0.45284    0.33530    0.77482    1.000
    Si1968   Si       0.42848    0.34559    0.84721    1.000
    Si1969   Si       0.47200    0.31610    0.81247    1.000
    N1970    N        0.37805    0.32594    0.75523    1.000
    Si1971   Si       0.40887    0.34606    0.77592    1.000
    N1972    N        0.44528    0.30537    0.84692    1.000
    N1973    N        0.28643    0.33841    0.98628    1.000
    N1974    N        0.25670    0.31669    0.92080    1.000
    Si1975   Si       0.26989    0.34923    0.94659    1.000
    Si1976   Si       0.24328    0.32087    0.87774    1.000
    N1977    N        0.36725    0.33669    0.93646    1.000
    Si1978   Si       0.43612    0.33938    0.96436    1.000
    Si1979   Si       0.37331    0.33090    0.89356    1.000
    N1980    N        0.40796    0.30643    0.97911    1.000
    N1981    N        0.45886    0.32303    0.93188    1.000
    N1982    N        0.40707    0.35600    0.88194    1.000
    N1983    N        0.30892    0.36279    0.92569    1.000
    Si1984   Si       0.36744    0.30344    0.96537    1.000
    Si1985   Si       0.32299    0.40176    0.08144    1.000
    N1986    N        0.29254    0.38757    0.04827    1.000
    Si1987   Si       0.30158    0.37609    0.00628    1.000
    N1988    N        0.35082    0.41450    0.11489    1.000
    N1989    N        0.28969    0.39291    0.11529    1.000
    N1990    N        0.35782    0.39218    0.05665    1.000
    Si1991   Si       0.36903    0.39563    0.01527    1.000
    N1992    N        0.46445    0.37572    0.06264    1.000
    N1993    N        0.41215    0.39170    0.01594    1.000
    N1994    N        0.41772    0.41675    0.10020    1.000
    Si1995   Si       0.45587    0.41607    0.07683    1.000
    Si1996   Si       0.35809    0.38548    0.14544    1.000
    N1997    N        0.31577    0.41031    0.24229    1.000
    Si1998   Si       0.46011    0.38864    0.23287    1.000
    N1999    N        0.23903    0.36026    0.24451    1.000
    N2000    N        0.39309    0.40464    0.16595    1.000
    Si2001   Si       0.41983    0.38911    0.13419    1.000
    N2002    N        0.41520    0.39439    0.24060    1.000
    N2003    N        0.45793    0.37421    0.14602    1.000
    Si2004   Si       0.29744    0.38774    0.33554    1.000
    Si2005   Si       0.31713    0.37253    0.26154    1.000
    N2006    N        0.26529    0.37182    0.36397    1.000
    N2007    N        0.28692    0.37433    0.29465    1.000
    N2008    N        0.35676    0.36499    0.27822    1.000
    Si2009   Si       0.40007    0.37082    0.46752    1.000
    N2010    N        0.46520    0.38628    0.35931    1.000
    N2011    N        0.47789    0.38757    0.27426    1.000
    Si2012   Si       0.33039    0.40648    0.43567    1.000
    Si2013   Si       0.27067    0.37884    0.40720    1.000
    N2014    N        0.31235    0.37806    0.41127    1.000
    N2015    N        0.24977    0.41480    0.41448    1.000
    N2016    N        0.43921    0.36616    0.44938    1.000
    Si2017   Si       0.46857    0.39540    0.46623    1.000
    N2018    N        0.37182    0.39926    0.44957    1.000
    N2019    N        0.28454    0.40151    0.53533    1.000
    N2020    N        0.29190    0.39863    0.60400    1.000
    Si2021   Si       0.33325    0.40949    0.60742    1.000
    N2022    N        0.34167    0.36819    0.53096    1.000
    N2023    N        0.35529    0.41912    0.57159    1.000
    Si2024   Si       0.27323    0.36162    0.61244    1.000
    Si2025   Si       0.29925    0.36214    0.53771    1.000
    Si2026   Si       0.36483    0.40394    0.53089    1.000
    N2027    N        0.45737    0.41275    0.55085    1.000
    N2028    N        0.40058    0.38398    0.50933    1.000
    Si2029   Si       0.45306    0.38756    0.58725    1.000
    N2030    N        0.48046    0.41336    0.61109    1.000
    Si2031   Si       0.42674    0.41649    0.51875    1.000
    N2032    N        0.41553    0.36686    0.58907    1.000
    N2033    N        0.24141    0.36942    0.64315    1.000
    N2034    N        0.35140    0.37438    0.62720    1.000
    Si2035   Si       0.28935    0.39744    0.71569    1.000
    N2036    N        0.31468    0.40100    0.67993    1.000
    Si2037   Si       0.32955    0.36423    0.66291    1.000
    N2038    N        0.47861    0.36286    0.66318    1.000
    N2039    N        0.40815    0.37744    0.66253    1.000
    N2040    N        0.37585    0.38711    0.72593    1.000
    Si2041   Si       0.39749    0.40756    0.69418    1.000
    Si2042   Si       0.44485    0.37103    0.68621    1.000
    N2043    N        0.44135    0.40911    0.70561    1.000
    Si2044   Si       0.26606    0.41525    0.57251    1.000
    N2045    N        0.34793    0.38293    0.79961    1.000
    Si2046   Si       0.35363    0.40334    0.76021    1.000
    N2047    N        0.31289    0.41199    0.74777    1.000
    N2048    N        0.41838    0.39069    0.78005    1.000
    Si2049   Si       0.45842    0.37630    0.78724    1.000
    N2050    N        0.46490    0.36574    0.83106    1.000
    N2051    N        0.30976    0.40877    0.87376    1.000
    Si2052   Si       0.30671    0.36520    0.88196    1.000
    N2053    N        0.34112    0.37617    0.98956    1.000
    Si2054   Si       0.34546    0.37367    0.94699    1.000
    N2055    N        0.24608    0.38449    0.94106    1.000
    N2056    N        0.28597    0.41654    0.99311    1.000
    N2057    N        0.49251    0.39980    0.77639    1.000
    N2058    N        0.36448    0.40249    0.92215    1.000
    Si2059   Si       0.40360    0.38806    0.91082    1.000
    N2060    N        0.43021    0.37975    0.94561    1.000
    N2061    N        0.47883    0.40761    0.99226    1.000
    N2062    N        0.23982    0.41752    0.88189    1.000
    N2063    N        0.31247    0.44562    0.06537    1.000
    Si2064   Si       0.34411    0.46291    0.04146    1.000
    N2065    N        0.24774    0.45584    0.03621    1.000
    Si2066   Si       0.27990    0.42817    0.03726    1.000
    Si2067   Si       0.30295    0.47683    0.09577    1.000
    N2068    N        0.36465    0.43912    0.00935    1.000
    N2069    N        0.45054    0.44236    0.04278    1.000
    Si2070   Si       0.38330    0.44211    0.10339    1.000
    N2071    N        0.37587    0.47109    0.07149    1.000
    Si2072   Si       0.43858    0.42439    0.00407    1.000
    N2073    N        0.48472    0.43704    0.09906    1.000
    Si2074   Si       0.26423    0.42548    0.12695    1.000
    N2075    N        0.27808    0.46469    0.20425    1.000
    N2076    N        0.33717    0.45319    0.18385    1.000
    N2077    N        0.28872    0.46190    0.13310    1.000
    Si2078   Si       0.31536    0.44703    0.22190    1.000
    Si2079   Si       0.30439    0.47887    0.16882    1.000
    Si2080   Si       0.23824    0.44891    0.19360    1.000
    N2081    N        0.39012    0.46589    0.13975    1.000
    Si2082   Si       0.37793    0.44487    0.17670    1.000
    N2083    N        0.39956    0.46069    0.21188    1.000
    Si2084   Si       0.47509    0.46302    0.23137    1.000
    Si2085   Si       0.47863    0.47697    0.11070    1.000
    Si2086   Si       0.46980    0.48066    0.03981    1.000
    N2087    N        0.24032    0.41859    0.16258    1.000
    Si2088   Si       0.27541    0.45767    0.36178    1.000
    N2089    N        0.30569    0.42864    0.34967    1.000
    Si2090   Si       0.34146    0.44465    0.36550    1.000
    N2091    N        0.37468    0.43506    0.34245    1.000
    N2092    N        0.44909    0.44779    0.26248    1.000
    Si2093   Si       0.40323    0.45608    0.31682    1.000
    N2094    N        0.38508    0.45934    0.27729    1.000
    N2095    N        0.43793    0.43251    0.32536    1.000
    Si2096   Si       0.44583    0.42492    0.36848    1.000
    Si2097   Si       0.46633    0.42405    0.29399    1.000
    Si2098   Si       0.40882    0.43768    0.24724    1.000
    N2099    N        0.29552    0.41928    0.46145    1.000
    N2100    N        0.34579    0.43808    0.40947    1.000
    Si2101   Si       0.26818    0.44572    0.43808    1.000
    N2102    N        0.28601    0.46863    0.40451    1.000
    Si2103   Si       0.36097    0.46779    0.48353    1.000
    Si2104   Si       0.48787    0.45278    0.41862    1.000
    N2105    N        0.44525    0.42745    0.48068    1.000
    N2106    N        0.42135    0.42644    0.40174    1.000
    Si2107   Si       0.43735    0.46906    0.46781    1.000
    N2108    N        0.39615    0.46290    0.45829    1.000
    Si2109   Si       0.38759    0.43177    0.42872    1.000
    N2110    N        0.48500    0.44805    0.37604    1.000
    N2111    N        0.25178    0.45596    0.56465    1.000
    N2112    N        0.28070    0.46682    0.50683    1.000
    N2113    N        0.34361    0.43496    0.50752    1.000
    Si2114   Si       0.30045    0.42720    0.50398    1.000
    N2115    N        0.31922    0.47468    0.56586    1.000
    N2116    N        0.37423    0.44031    0.68106    1.000
    Si2117   Si       0.36476    0.46443    0.55146    1.000
    N2118    N        0.39822    0.44179    0.53367    1.000
    N2119    N        0.47914    0.47454    0.56387    1.000
    N2120    N        0.30543    0.46861    0.69674    1.000
    N2121    N        0.33158    0.44662    0.62998    1.000
    Si2122   Si       0.26596    0.46354    0.71281    1.000
    Si2123   Si       0.33162    0.44085    0.67190    1.000
    N2124    N        0.25417    0.42369    0.71416    1.000
    Si2125   Si       0.45061    0.44662    0.71817    1.000
    N2126    N        0.43435    0.47271    0.68647    1.000
    N2127    N        0.31882    0.45503    0.81620    1.000
    Si2128   Si       0.27942    0.47122    0.82789    1.000
    N2129    N        0.24584    0.44824    0.81723    1.000
    N2130    N        0.27716    0.47637    0.87083    1.000
    Si2131   Si       0.34773    0.42232    0.81894    1.000
    N2132    N        0.36964    0.43903    0.78299    1.000
    Si2133   Si       0.41304    0.43213    0.78549    1.000
    N2134    N        0.43342    0.43895    0.82442    1.000
    Si2135   Si       0.41101    0.44281    0.86194    1.000
    Si2136   Si       0.47606    0.45083    0.83298    1.000
    N2137    N        0.42773    0.45891    0.75411    1.000
    N2138    N        0.37229    0.42394    0.85436    1.000
    N2139    N        0.28832    0.44163    0.92891    1.000
    Si2140   Si       0.27949    0.43675    0.88712    1.000
    N2141    N        0.34113    0.46851    0.89237    1.000
    Si2142   Si       0.34643    0.42597    0.88803    1.000
    Si2143   Si       0.26290    0.42294    0.95753    1.000
    Si2144   Si       0.31806    0.47398    0.92782    1.000
    Si2145   Si       0.44411    0.42305    0.93765    1.000
    N2146    N        0.48658    0.43398    0.93368    1.000
    N2147    N        0.42508    0.42458    0.89845    1.000
    Si2148   Si       0.38380    0.46360    0.97876    1.000
    N2149    N        0.41940    0.44323    0.96772    1.000
    N2150    N        0.26907    0.49941    0.07541    1.000
    Si2151   Si       0.27924    0.51149    0.03429    1.000
    N2152    N        0.33338    0.50550    0.10708    1.000
    N2153    N        0.31920    0.49566    0.02361    1.000
    N2154    N        0.24729    0.51334    0.00623    1.000
    N2155    N        0.45395    0.48466    0.14576    1.000
    N2156    N        0.38616    0.50129    0.99989    1.000
    Si2157   Si       0.36946    0.51183    0.08496    1.000
    N2158    N        0.46383    0.50025    0.07772    1.000
    N2159    N        0.40469    0.52501    0.10748    1.000
    N2160    N        0.45691    0.50120    0.00536    1.000
    Si2161   Si       0.41928    0.52513    0.00477    1.000
    Si2162   Si       0.41440    0.49928    0.14305    1.000
    N2163    N        0.40187    0.52195    0.17798    1.000
    N2164    N        0.24025    0.52255    0.13328    1.000
    N2165    N        0.30675    0.52093    0.16500    1.000
    N2166    N        0.26629    0.53189    0.21399    1.000
    Si2167   Si       0.27901    0.49809    0.24359    1.000
    Si2168   Si       0.41099    0.50323    0.21528    1.000
    Si2169   Si       0.43789    0.53731    0.08354    1.000
    Si2170   Si       0.47410    0.50695    0.17723    1.000
    N2171    N        0.45372    0.49661    0.21427    1.000
    N2172    N        0.34845    0.51320    0.30713    1.000
    N2173    N        0.27827    0.49404    0.33760    1.000
    Si2174   Si       0.30502    0.52044    0.31727    1.000
    N2175    N        0.28614    0.52866    0.27986    1.000
    Si2176   Si       0.35762    0.49440    0.26938    1.000
    N2177    N        0.24118    0.48292    0.26048    1.000
    Si2178   Si       0.24311    0.52008    0.34410    1.000
    N2179    N        0.32144    0.47900    0.25045    1.000
    Si2180   Si       0.36859    0.51402    0.34530    1.000
    Si2181   Si       0.44550    0.52145    0.33852    1.000
    N2182    N        0.40775    0.49764    0.33447    1.000
    N2183    N        0.47631    0.49797    0.31945    1.000
    N2184    N        0.34526    0.48713    0.37007    1.000
    N2185    N        0.33332    0.48732    0.45488    1.000
    N2186    N        0.27469    0.52658    0.47309    1.000
    Si2187   Si       0.25247    0.49251    0.48546    1.000
    Si2188   Si       0.31541    0.52709    0.45583    1.000
    Si2189   Si       0.32790    0.48624    0.41013    1.000
    N2190    N        0.45839    0.48287    0.43164    1.000
    Si2191   Si       0.47309    0.52312    0.41540    1.000
    N2192    N        0.44401    0.52784    0.38219    1.000
    Si2193   Si       0.45151    0.53375    0.48704    1.000
    N2194    N        0.32045    0.53295    0.41297    1.000
    N2195    N        0.38394    0.52206    0.24430    1.000
    N2196    N        0.27241    0.52236    0.55676    1.000
    Si2197   Si       0.33651    0.48122    0.60499    1.000
    Si2198   Si       0.28174    0.48124    0.54765    1.000
    N2199    N        0.31723    0.51704    0.61638    1.000
    N2200    N        0.36617    0.49449    0.51642    1.000
    Si2201   Si       0.46528    0.50779    0.58762    1.000
    N2202    N        0.43075    0.52707    0.57079    1.000
    N2203    N        0.37826    0.48311    0.58846    1.000
    Si2204   Si       0.40225    0.51099    0.61352    1.000
    Si2205   Si       0.36970    0.53594    0.51223    1.000
    N2206    N        0.45917    0.49362    0.49765    1.000
    N2207    N        0.32426    0.53104    0.69232    1.000
    Si2208   Si       0.33592    0.49607    0.71603    1.000
    Si2209   Si       0.33681    0.53214    0.65117    1.000
    Si2210   Si       0.45941    0.49894    0.66148    1.000
    N2211    N        0.37926    0.49856    0.71775    1.000
    N2212    N        0.37309    0.50561    0.64923    1.000
    N2213    N        0.43972    0.49493    0.62402    1.000
    Si2214   Si       0.39288    0.48051    0.67892    1.000
    N2215    N        0.27646    0.51174    0.80782    1.000
    N2216    N        0.34928    0.51571    0.82979    1.000
    Si2217   Si       0.28201    0.51178    0.76452    1.000
    N2218    N        0.32197    0.49516    0.75757    1.000
    Si2219   Si       0.31127    0.53611    0.82486    1.000
    Si2220   Si       0.34826    0.47977    0.79161    1.000
    Si2221   Si       0.35924    0.50184    0.87114    1.000
    N2222    N        0.25590    0.47993    0.75267    1.000
    Si2223   Si       0.38392    0.53546    0.81320    1.000
    N2224    N        0.47240    0.48936    0.85482    1.000
    Si2225   Si       0.43355    0.51000    0.85864    1.000
    N2226    N        0.38417    0.50510    0.78168    1.000
    N2227    N        0.39928    0.48400    0.86171    1.000
    N2228    N        0.42786    0.53041    0.82110    1.000
    N2229    N        0.44235    0.52737    0.75209    1.000
    Si2230   Si       0.41023    0.49833    0.74850    1.000
    N2231    N        0.34646    0.47860    0.95918    1.000
    Si2232   Si       0.34333    0.50823    0.99083    1.000
    Si2233   Si       0.27067    0.51409    0.89197    1.000
    N2234    N        0.29693    0.51274    0.92572    1.000
    Si2235   Si       0.47249    0.52771    0.97518    1.000
    N2236    N        0.48287    0.51310    0.93485    1.000
    N2237    N        0.28381    0.55518    0.03806    1.000
    Si2238   Si       0.31802    0.56746    0.05957    1.000
    N2239    N        0.29994    0.55969    0.10024    1.000
    Si2240   Si       0.25706    0.58770    0.05006    1.000
    N2241    N        0.35832    0.54955    0.06089    1.000
    N2242    N        0.38732    0.58200    0.20725    1.000
    N2243    N        0.45299    0.57554    0.09910    1.000
    Si2244   Si       0.38858    0.57585    0.04240    1.000
    N2245    N        0.42108    0.54403    0.04452    1.000
    N2246    N        0.38781    0.58203    0.99926    1.000
    N2247    N        0.42024    0.59141    0.15605    1.000
    Si2248   Si       0.30219    0.55446    0.19549    1.000
    N2249    N        0.32551    0.56181    0.23173    1.000
    N2250    N        0.35382    0.56788    0.14667    1.000
    N2251    N        0.29664    0.59045    0.17208    1.000
    N2252    N        0.26151    0.58902    0.24183    1.000
    Si2253   Si       0.32389    0.54124    0.13046    1.000
    Si2254   Si       0.39135    0.56167    0.16885    1.000
    N2255    N        0.47795    0.54614    0.15615    1.000
    Si2256   Si       0.45938    0.58374    0.14130    1.000
    Si2257   Si       0.36849    0.56503    0.24238    1.000
    Si2258   Si       0.26272    0.53667    0.09789    1.000
    N2259    N        0.30670    0.55333    0.34661    1.000
    Si2260   Si       0.28012    0.58117    0.32741    1.000
    Si2261   Si       0.29210    0.56554    0.26048    1.000
    N2262    N        0.30039    0.59015    0.29261    1.000
    N2263    N        0.24209    0.55973    0.32633    1.000
    Si2264   Si       0.45708    0.58132    0.30108    1.000
    N2265    N        0.43187    0.56349    0.32966    1.000
    N2266    N        0.47576    0.55075    0.27747    1.000
    N2267    N        0.37236    0.55033    0.36956    1.000
    Si2268   Si       0.33258    0.56182    0.38342    1.000
    Si2269   Si       0.25874    0.56639    0.47965    1.000
    N2270    N        0.33962    0.54990    0.48300    1.000
    Si2271   Si       0.33252    0.59246    0.48428    1.000
    Si2272   Si       0.44821    0.59203    0.43925    1.000
    N2273    N        0.42350    0.59263    0.40106    1.000
    Si2274   Si       0.41618    0.56136    0.37391    1.000
    N2275    N        0.45912    0.55072    0.44711    1.000
    N2276    N        0.30300    0.58013    0.57511    1.000
    Si2277   Si       0.34184    0.58911    0.55998    1.000
    Si2278   Si       0.29144    0.54058    0.59179    1.000
    N2279    N        0.26140    0.55952    0.61819    1.000
    N2280    N        0.36440    0.55191    0.55263    1.000
    Si2281   Si       0.40402    0.55919    0.57075    1.000
    N2282    N        0.47064    0.56691    0.50980    1.000
    Si2283   Si       0.43069    0.58578    0.50914    1.000
    N2284    N        0.40059    0.55491    0.61782    1.000
    N2285    N        0.41154    0.54504    0.49854    1.000
    N2286    N        0.41955    0.59528    0.55052    1.000
    Si2287   Si       0.30480    0.56364    0.71426    1.000
    N2288    N        0.33735    0.57678    0.64632    1.000
    N2289    N        0.34126    0.58069    0.73165    1.000
    N2290    N        0.44899    0.53855    0.67578    1.000
    N2291    N        0.27218    0.54161    0.73373    1.000
    N2292    N        0.39656    0.59368    0.66643    1.000
    Si2293   Si       0.46225    0.54777    0.71611    1.000
    N2294    N        0.45853    0.58767    0.62504    1.000
    Si2295   Si       0.42943    0.56559    0.64945    1.000
    Si2296   Si       0.37433    0.58886    0.62796    1.000
    N2297    N        0.45674    0.58979    0.72242    1.000
    N2298    N        0.30541    0.57108    0.79870    1.000
    Si2299   Si       0.33879    0.58801    0.77577    1.000
    N2300    N        0.29633    0.54005    0.86588    1.000
    Si2301   Si       0.26913    0.59156    0.81021    1.000
    N2302    N        0.37029    0.57426    0.80195    1.000
    N2303    N        0.40448    0.58712    0.85762    1.000
    Si2304   Si       0.45567    0.54449    0.79157    1.000
    N2305    N        0.44816    0.58896    0.79326    1.000
    N2306    N        0.30586    0.58345    0.91702    1.000
    Si2307   Si       0.32682    0.56670    0.88227    1.000
    Si2308   Si       0.30135    0.54980    0.94868    1.000
    N2309    N        0.33092    0.54837    0.97959    1.000
    N2310    N        0.26739    0.56991    0.96638    1.000
    Si2311   Si       0.34674    0.58943    0.98773    1.000
    N2312    N        0.43624    0.54882    0.97224    1.000
    N2313    N        0.36116    0.54290    0.88806    1.000
    Si2314   Si       0.41582    0.58528    0.96725    1.000
    N2315    N        0.43488    0.53752    0.89167    1.000
    N2316    N        0.39719    0.58332    0.93037    1.000
    Si2317   Si       0.39946    0.56251    0.89374    1.000
    N2318    N        0.47951    0.58255    0.92913    1.000
    Si2319   Si       0.47514    0.54624    0.90753    1.000
    N2320    N        0.27938    0.62171    0.06330    1.000
    Si2321   Si       0.31578    0.63898    0.04225    1.000
    N2322    N        0.34684    0.64388    0.07186    1.000
    N2323    N        0.33123    0.59982    0.02898    1.000
    Si2324   Si       0.25970    0.65122    0.08872    1.000
    N2325    N        0.46061    0.64462    0.09353    1.000
    Si2326   Si       0.44798    0.60772    0.07157    1.000
    N2327    N        0.40585    0.61113    0.06003    1.000
    N2328    N        0.47387    0.60733    0.03538    1.000
    Si2329   Si       0.38548    0.64813    0.05226    1.000
    Si2330   Si       0.27194    0.63236    0.23979    1.000
    N2331    N        0.24524    0.63794    0.12917    1.000
    N2332    N        0.31188    0.63916    0.13681    1.000
    N2333    N        0.26568    0.64417    0.19823    1.000
    Si2334   Si       0.27510    0.62653    0.15903    1.000
    Si2335   Si       0.33557    0.60769    0.15684    1.000
    N2336    N        0.44040    0.65130    0.18271    1.000
    Si2337   Si       0.40306    0.61986    0.18951    1.000
    N2338    N        0.36576    0.63576    0.17155    1.000
    N2339    N        0.39983    0.64430    0.22804    1.000
    Si2340   Si       0.48861    0.64521    0.02067    1.000
    N2341    N        0.27312    0.61690    0.35006    1.000
    N2342    N        0.34008    0.63457    0.32340    1.000
    Si2343   Si       0.33195    0.61876    0.28479    1.000
    Si2344   Si       0.31340    0.63187    0.35755    1.000
    N2345    N        0.30984    0.64630    0.25549    1.000
    N2346    N        0.24278    0.65279    0.26709    1.000
    Si2347   Si       0.47268    0.64144    0.28640    1.000
    N2348    N        0.44015    0.61305    0.27592    1.000
    Si2349   Si       0.40070    0.62602    0.26626    1.000
    N2350    N        0.39473    0.65362    0.36877    1.000
    N2351    N        0.48444    0.61013    0.31650    1.000
    N2352    N        0.36834    0.59809    0.27053    1.000
    N2353    N        0.33021    0.60661    0.38769    1.000
    N2354    N        0.35245    0.60952    0.44945    1.000
    Si2355   Si       0.32866    0.63492    0.42104    1.000
    Si2356   Si       0.26922    0.63663    0.46638    1.000
    N2357    N        0.29254    0.65159    0.43420    1.000
    N2358    N        0.46677    0.64629    0.37563    1.000
    N2359    N        0.41837    0.65021    0.42768    1.000
    N2360    N        0.42257    0.60685    0.47248    1.000
    Si2361   Si       0.38858    0.63365    0.45532    1.000
    N2362    N        0.47946    0.62350    0.44128    1.000
    Si2363   Si       0.42738    0.63357    0.38732    1.000
    N2364    N        0.28845    0.59806    0.47774    1.000
    N2365    N        0.34775    0.60947    0.52130    1.000
    Si2366   Si       0.36142    0.65072    0.52579    1.000
    Si2367   Si       0.26693    0.59810    0.59697    1.000
    N2368    N        0.36831    0.60738    0.58822    1.000
    Si2369   Si       0.40331    0.62814    0.57562    1.000
    N2370    N        0.41519    0.64745    0.61256    1.000
    N2371    N        0.39879    0.65847    0.54682    1.000
    N2372    N        0.48447    0.65258    0.62184    1.000
    N2373    N        0.28763    0.62777    0.62434    1.000
    N2374    N        0.34267    0.63435    0.67801    1.000
    Si2375   Si       0.31204    0.61141    0.65659    1.000
    N2376    N        0.44946    0.64094    0.67465    1.000
    N2377    N        0.39036    0.62962    0.72391    1.000
    N2378    N        0.45005    0.64859    0.74657    1.000
    Si2379   Si       0.44966    0.62976    0.63088    1.000
    Si2380   Si       0.36741    0.60348    0.69803    1.000
    Si2381   Si       0.43176    0.62476    0.71098    1.000
    N2382    N        0.28558    0.59304    0.68865    1.000
    Si2383   Si       0.24405    0.59852    0.69129    1.000
    N2384    N        0.25796    0.62630    0.78581    1.000
    N2385    N        0.34306    0.63218    0.78188    1.000
    Si2386   Si       0.30300    0.62960    0.86237    1.000
    N2387    N        0.33677    0.60116    0.85643    1.000
    N2388    N        0.27008    0.60067    0.85287    1.000
    N2389    N        0.40368    0.63627    0.82028    1.000
    N2390    N        0.46595    0.61516    0.85961    1.000
    Si2391   Si       0.46722    0.61138    0.76054    1.000
    Si2392   Si       0.43322    0.60600    0.83059    1.000
    Si2393   Si       0.37292    0.60512    0.83338    1.000
    Si2394   Si       0.36785    0.65193    0.75214    1.000
    Si2395   Si       0.32056    0.65379    0.93841    1.000
    N2396    N        0.27682    0.64293    0.94911    1.000
    N2397    N        0.33831    0.62361    0.96407    1.000
    Si2398   Si       0.26953    0.60185    0.93532    1.000
    Si2399   Si       0.47959    0.61771    0.95157    1.000
    N2400    N        0.48458    0.65092    0.92163    1.000
    N2401    N        0.44156    0.61823    0.97196    1.000
    Si2402   Si       0.42144    0.65478    0.98543    1.000
    N2403    N        0.29096    0.68251    0.08772    1.000
    N2404    N        0.31729    0.67356    0.01591    1.000
    N2405    N        0.24473    0.68143    0.00631    1.000
    Si2406   Si       0.28226    0.70037    0.00649    1.000
    Si2407   Si       0.32636    0.66376    0.10520    1.000
    Si2408   Si       0.35428    0.68608    0.99655    1.000
    N2409    N        0.39900    0.68419    0.07583    1.000
    Si2410   Si       0.43863    0.68138    0.09184    1.000
    N2411    N        0.45695    0.67279    0.00638    1.000
    N2412    N        0.38696    0.65954    0.01142    1.000
    Si2413   Si       0.37682    0.71394    0.09874    1.000
    N2414    N        0.35356    0.68844    0.12588    1.000
    Si2415   Si       0.35254    0.67926    0.16759    1.000
    N2416    N        0.32128    0.70236    0.18889    1.000
    N2417    N        0.24322    0.70227    0.17011    1.000
    N2418    N        0.27297    0.70943    0.23185    1.000
    N2419    N        0.38618    0.70320    0.18784    1.000
    N2420    N        0.43417    0.68683    0.13324    1.000
    N2421    N        0.42987    0.70454    0.24239    1.000
    Si2422   Si       0.41886    0.67797    0.20958    1.000
    Si2423   Si       0.46261    0.65468    0.14426    1.000
    N2424    N        0.46069    0.71125    0.06993    1.000
    N2425    N        0.35265    0.69901    0.32931    1.000
    N2426    N        0.29130    0.69848    0.29430    1.000
    Si2427   Si       0.25039    0.68211    0.29938    1.000
    Si2428   Si       0.30593    0.68939    0.25419    1.000
    N2429    N        0.34745    0.70413    0.25247    1.000
    Si2430   Si       0.32628    0.71027    0.36351    1.000
    Si2431   Si       0.42056    0.69471    0.28367    1.000
    N2432    N        0.45640    0.67956    0.30310    1.000
    N2433    N        0.39460    0.66117    0.29212    1.000
    Si2434   Si       0.37376    0.66034    0.33102    1.000
    Si2435   Si       0.48683    0.70006    0.32647    1.000
    N2436    N        0.30472    0.67236    0.37589    1.000
    Si2437   Si       0.27556    0.68008    0.40604    1.000
    N2438    N        0.35786    0.66636    0.42198    1.000
    Si2439   Si       0.36093    0.69395    0.45613    1.000
    N2440    N        0.46359    0.69598    0.43238    1.000
    Si2441   Si       0.45278    0.65684    0.45268    1.000
    Si2442   Si       0.48209    0.68253    0.39536    1.000
    Si2443   Si       0.39373    0.68279    0.40466    1.000
    N2444    N        0.37273    0.66239    0.48452    1.000
    N2445    N        0.39749    0.71230    0.44330    1.000
    Si2446   Si       0.28288    0.67281    0.53810    1.000
    Si2447   Si       0.27466    0.66855    0.61285    1.000
    N2448    N        0.30693    0.69568    0.60667    1.000
    N2449    N        0.32636    0.66610    0.54536    1.000
    Si2450   Si       0.32891    0.70390    0.56773    1.000
    N2451    N        0.26064    0.66032    0.57166    1.000
    N2452    N        0.26802    0.66255    0.50018    1.000
    N2453    N        0.36702    0.70174    0.59268    1.000
    Si2454   Si       0.43195    0.68093    0.53283    1.000
    N2455    N        0.47102    0.67753    0.55330    1.000
    Si2456   Si       0.39954    0.68852    0.61891    1.000
    Si2457   Si       0.34844    0.67761    0.68267    1.000
    N2458    N        0.34917    0.68598    0.72695    1.000
    N2459    N        0.25205    0.68754    0.64429    1.000
    Si2460   Si       0.30333    0.69371    0.73696    1.000
    Si2461   Si       0.27451    0.70472    0.67564    1.000
    N2462    N        0.31705    0.70490    0.67002    1.000
    N2463    N        0.26668    0.68264    0.71346    1.000
    N2464    N        0.37589    0.69139    0.65345    1.000
    Si2465   Si       0.48672    0.65928    0.66665    1.000
    Si2466   Si       0.37918    0.71275    0.74039    1.000
    Si2467   Si       0.34007    0.71329    0.63099    1.000
    N2468    N        0.45174    0.66537    0.49533    1.000
    N2469    N        0.29606    0.68209    0.77724    1.000
    N2470    N        0.35241    0.68066    0.82937    1.000
    Si2471   Si       0.25830    0.66779    0.80000    1.000
    Si2472   Si       0.27674    0.69965    0.85440    1.000
    N2473    N        0.29071    0.66119    0.83513    1.000
    Si2474   Si       0.32362    0.66281    0.80507    1.000
    N2475    N        0.24913    0.70947    0.81984    1.000
    Si2476   Si       0.34187    0.69171    0.87039    1.000
    Si2477   Si       0.39394    0.67679    0.81427    1.000
    N2478    N        0.39432    0.68114    0.77051    1.000
    N2479    N        0.41825    0.70943    0.82554    1.000
    Si2480   Si       0.43589    0.68804    0.75266    1.000
    N2481    N        0.46450    0.71053    0.77614    1.000
    Si2482   Si       0.23907    0.66125    0.96924    1.000
    N2483    N        0.34872    0.68490    0.95351    1.000
    N2484    N        0.24255    0.70440    0.88225    1.000
    N2485    N        0.32015    0.66006    0.89243    1.000
    Si2486   Si       0.48880    0.70990    0.86947    1.000
    Si2487   Si       0.46805    0.71066    0.98970    1.000
    N2488    N        0.44967    0.70318    0.88709    1.000
    N2489    N        0.48270    0.70764    0.94960    1.000
    Si2490   Si       0.38482    0.69969    0.93350    1.000
    N2491    N        0.38104    0.69863    0.88908    1.000
    N2492    N        0.41874    0.67892    0.94838    1.000
    Si2493   Si       0.45471    0.68367    0.92528    1.000
    Si2494   Si       0.41347    0.71984    0.87019    1.000
    N2495    N        0.34773    0.72436    0.07068    1.000
    N2496    N        0.28262    0.73289    0.03603    1.000
    N2497    N        0.29698    0.75021    0.10364    1.000
    Si2498   Si       0.30340    0.72250    0.07229    1.000
    Si2499   Si       0.26061    0.76770    0.02241    1.000
    Si2500   Si       0.36628    0.75083    0.04338    1.000
    N2501    N        0.36812    0.72787    0.00514    1.000
    Si2502   Si       0.44468    0.74255    0.04577    1.000
    N2503    N        0.40582    0.75958    0.05913    1.000
    N2504    N        0.43720    0.73809    0.00282    1.000
    Si2505   Si       0.41806    0.71897    0.15666    1.000
    N2506    N        0.27905    0.75939    0.16991    1.000
    N2507    N        0.35086    0.76571    0.22032    1.000
    Si2508   Si       0.35413    0.72319    0.21308    1.000
    Si2509   Si       0.26608    0.76386    0.12800    1.000
    Si2510   Si       0.28040    0.71901    0.18998    1.000
    Si2511   Si       0.44169    0.74226    0.22512    1.000
    N2512    N        0.45126    0.72684    0.18448    1.000
    N2513    N        0.39669    0.74191    0.12761    1.000
    N2514    N        0.48471    0.74673    0.23389    1.000
    N2515    N        0.29785    0.73885    0.35072    1.000
    Si2516   Si       0.29252    0.74026    0.30949    1.000
    N2517    N        0.32901    0.75406    0.28981    1.000
    N2518    N        0.26182    0.76656    0.29495    1.000
    Si2519   Si       0.35665    0.72095    0.29272    1.000
    N2520    N        0.39945    0.73277    0.29556    1.000
    N2521    N        0.44154    0.76439    0.34008    1.000
    Si2522   Si       0.40372    0.76721    0.31983    1.000
    N2523    N        0.47546    0.71258    0.36594    1.000
    Si2524   Si       0.47823    0.77285    0.32035    1.000
    Si2525   Si       0.37966    0.74864    0.39047    1.000
    Si2526   Si       0.26336    0.74912    0.37838    1.000
    Si2527   Si       0.31603    0.73913    0.43206    1.000
    N2528    N        0.25132    0.75763    0.47871    1.000
    N2529    N        0.27726    0.72630    0.41437    1.000
    N2530    N        0.34233    0.72732    0.40032    1.000
    N2531    N        0.33168    0.72331    0.46921    1.000
    Si2532   Si       0.24481    0.73298    0.44295    1.000
    Si2533   Si       0.43803    0.73065    0.44254    1.000
    N2534    N        0.40722    0.71588    0.37991    1.000
    Si2535   Si       0.44282    0.73870    0.37537    1.000
    N2536    N        0.44861    0.74632    0.48226    1.000
    N2537    N        0.44221    0.76113    0.41183    1.000
    Si2538   Si       0.28282    0.75684    0.54650    1.000
    N2539    N        0.35017    0.73166    0.54341    1.000
    Si2540   Si       0.34263    0.74759    0.50401    1.000
    N2541    N        0.28979    0.71489    0.54597    1.000
    N2542    N        0.29254    0.77479    0.58383    1.000
    Si2543   Si       0.45735    0.74139    0.62228    1.000
    Si2544   Si       0.41632    0.75473    0.51067    1.000
    Si2545   Si       0.38952    0.73112    0.57021    1.000
    N2546    N        0.41705    0.72142    0.53733    1.000
    N2547    N        0.42241    0.72294    0.60726    1.000
    N2548    N        0.34321    0.75664    0.62774    1.000
    N2549    N        0.30285    0.73709    0.73446    1.000
    N2550    N        0.25539    0.74078    0.68389    1.000
    Si2551   Si       0.26414    0.75328    0.72434    1.000
    Si2552   Si       0.24082    0.76803    0.65333    1.000
    N2553    N        0.23819    0.75453    0.54436    1.000
    N2554    N        0.46483    0.77047    0.71871    1.000
    Si2555   Si       0.42996    0.74985    0.69952    1.000
    N2556    N        0.45297    0.73852    0.66469    1.000
    N2557    N        0.41881    0.71542    0.72189    1.000
    N2558    N        0.37902    0.77051    0.49884    1.000
    N2559    N        0.31073    0.72292    0.86805    1.000
    Si2560   Si       0.32896    0.76677    0.75062    1.000
    N2561    N        0.36745    0.74908    0.76097    1.000
    Si2562   Si       0.45011    0.73325    0.80875    1.000
    N2563    N        0.47917    0.74162    0.84017    1.000
    N2564    N        0.41761    0.76409    0.86726    1.000
    N2565    N        0.43523    0.76891    0.78822    1.000
    Si2566   Si       0.45977    0.77281    0.86577    1.000
    Si2567   Si       0.24242    0.74901    0.89484    1.000
    Si2568   Si       0.31043    0.76551    0.88199    1.000
    N2569    N        0.28250    0.72314    0.97051    1.000
    N2570    N        0.28125    0.76372    0.91340    1.000
    Si2571   Si       0.29380    0.76133    0.95652    1.000
    N2572    N        0.39550    0.74286    0.94324    1.000
    Si2573   Si       0.40058    0.74983    0.98518    1.000
    N2574    N        0.35161    0.77476    0.88997    1.000
    N2575    N        0.34304    0.78580    0.03935    1.000
    Si2576   Si       0.26333    0.81587    0.08504    1.000
    Si2577   Si       0.33969    0.81914    0.06901    1.000
    N2578    N        0.24783    0.78245    0.06266    1.000
    N2579    N        0.35722    0.81453    0.11017    1.000
    N2580    N        0.26668    0.83114    0.19126    1.000
    N2581    N        0.42618    0.80412    0.11163    1.000
    Si2582   Si       0.42707    0.79703    0.06898    1.000
    N2583    N        0.46634    0.77842    0.06153    1.000
    N2584    N        0.42272    0.82797    0.04009    1.000
    N2585    N        0.26486    0.80800    0.12646    1.000
    N2586    N        0.32875    0.81114    0.17330    1.000
    Si2587   Si       0.29201    0.79482    0.19229    1.000
    N2588    N        0.28921    0.78751    0.23490    1.000
    Si2589   Si       0.36253    0.80168    0.19879    1.000
    Si2590   Si       0.39051    0.78568    0.12868    1.000
    N2591    N        0.47045    0.80255    0.17085    1.000
    N2592    N        0.39577    0.79304    0.17210    1.000
    N2593    N        0.42780    0.78223    0.23036    1.000
    Si2594   Si       0.46350    0.81685    0.12960    1.000
    Si2595   Si       0.43336    0.80233    0.19105    1.000
    Si2596   Si       0.38433    0.83165    0.01563    1.000
    N2597    N        0.33701    0.81842    0.27025    1.000
    Si2598   Si       0.25054    0.78698    0.25602    1.000
    Si2599   Si       0.32604    0.77933    0.25498    1.000
    N2600    N        0.24097    0.82866    0.25867    1.000
    N2601    N        0.46871    0.79470    0.28198    1.000
    N2602    N        0.39893    0.80321    0.29482    1.000
    Si2603   Si       0.43057    0.80805    0.26608    1.000
    N2604    N        0.25958    0.79069    0.37052    1.000
    N2605    N        0.37779    0.77780    0.42107    1.000
    Si2606   Si       0.34329    0.80369    0.43224    1.000
    Si2607   Si       0.28766    0.78526    0.47855    1.000
    N2608    N        0.33726    0.82002    0.39186    1.000
    N2609    N        0.30692    0.78098    0.44160    1.000
    N2610    N        0.35133    0.82829    0.46658    1.000
    N2611    N        0.41831    0.81496    0.46018    1.000
    N2612    N        0.41259    0.82032    0.38784    1.000
    Si2613   Si       0.37124    0.81195    0.36934    1.000
    N2614    N        0.48504    0.80792    0.47526    1.000
    Si2615   Si       0.41899    0.79543    0.42201    1.000
    Si2616   Si       0.38389    0.81232    0.48917    1.000
    N2617    N        0.37685    0.77264    0.35351    1.000
    N2618    N        0.33855    0.81706    0.61379    1.000
    Si2619   Si       0.30933    0.78466    0.62096    1.000
    N2620    N        0.30863    0.77239    0.51463    1.000
    Si2621   Si       0.37112    0.78688    0.61115    1.000
    N2622    N        0.44228    0.78738    0.52905    1.000
    Si2623   Si       0.41404    0.80837    0.55407    1.000
    Si2624   Si       0.47859    0.82050    0.59240    1.000
    N2625    N        0.47619    0.77987    0.60837    1.000
    N2626    N        0.39209    0.77578    0.57334    1.000
    Si2627   Si       0.47621    0.77612    0.50232    1.000
    Si2628   Si       0.41282    0.81540    0.66914    1.000
    N2629    N        0.33292    0.79718    0.72102    1.000
    N2630    N        0.27868    0.79288    0.64942    1.000
    N2631    N        0.26435    0.79576    0.73098    1.000
    Si2632   Si       0.29755    0.82189    0.71917    1.000
    Si2633   Si       0.25567    0.82885    0.66231    1.000
    Si2634   Si       0.37500    0.80557    0.71742    1.000
    N2635    N        0.40077    0.81045    0.63021    1.000
    Si2636   Si       0.47829    0.81115    0.70806    1.000
    N2637    N        0.39984    0.78006    0.69269    1.000
    N2638    N        0.45375    0.82479    0.67686    1.000
    Si2639   Si       0.32891    0.79839    0.81841    1.000
    N2640    N        0.30100    0.79533    0.85012    1.000
    Si2641   Si       0.26941    0.80253    0.77778    1.000
    N2642    N        0.30657    0.78353    0.78462    1.000
    N2643    N        0.23801    0.77994    0.79702    1.000
    N2644    N        0.36737    0.77825    0.82160    1.000
    N2645    N        0.38917    0.81151    0.75739    1.000
    Si2646   Si       0.38179    0.78708    0.86116    1.000
    Si2647   Si       0.46785    0.78363    0.76169    1.000
    N2648    N        0.47799    0.81031    0.85266    1.000
    N2649    N        0.38481    0.83017    0.86606    1.000
    Si2650   Si       0.39199    0.77684    0.78471    1.000
    N2651    N        0.47276    0.82423    0.74809    1.000
    N2652    N        0.47267    0.77599    0.90757    1.000
    N2653    N        0.33708    0.77254    0.95934    1.000
    N2654    N        0.28801    0.78889    0.99445    1.000
    Si2655   Si       0.48297    0.82035    0.89804    1.000
    N2656    N        0.39487    0.79095    0.99541    1.000
    N2657    N        0.46087    0.81870    0.97892    1.000
    Si2658   Si       0.36730    0.77511    0.93063    1.000
    N2659    N        0.39498    0.80987    0.93001    1.000
    Si2660   Si       0.41944    0.81475    0.96712    1.000
    Si2661   Si       0.33221    0.79350    0.99754    1.000
    Si2662   Si       0.28111    0.87117    0.04966    1.000
    N2663    N        0.24498    0.86780    0.02507    1.000
    N2664    N        0.29908    0.83350    0.06824    1.000
    Si2665   Si       0.24026    0.88603    0.10200    1.000
    N2666    N        0.36484    0.85116    0.05120    1.000
    N2667    N        0.48198    0.86137    0.03354    1.000
    Si2668   Si       0.44767    0.84720    0.01056    1.000
    N2669    N        0.23582    0.84760    0.08325    1.000
    N2670    N        0.29793    0.87343    0.23917    1.000
    Si2671   Si       0.25991    0.85538    0.22776    1.000
    Si2672   Si       0.27331    0.84333    0.15054    1.000
    N2673    N        0.30932    0.86475    0.13449    1.000
    Si2674   Si       0.34455    0.83898    0.14277    1.000
    N2675    N        0.24892    0.87896    0.14417    1.000
    Si2676   Si       0.39225    0.86557    0.19558    1.000
    N2677    N        0.36649    0.84137    0.21909    1.000
    N2678    N        0.37916    0.86720    0.15387    1.000
    N2679    N        0.46921    0.85918    0.12400    1.000
    Si2680   Si       0.46103    0.86317    0.22660    1.000
    N2681    N        0.43139    0.84699    0.19765    1.000
    N2682    N        0.31446    0.88525    0.02837    1.000
    Si2683   Si       0.26942    0.87222    0.34766    1.000
    N2684    N        0.31153    0.86676    0.33898    1.000
    N2685    N        0.35444    0.87629    0.28169    1.000
    N2686    N        0.24197    0.84393    0.32799    1.000
    Si2687   Si       0.33678    0.85636    0.24881    1.000
    N2688    N        0.45245    0.84703    0.33631    1.000
    Si2689   Si       0.46221    0.86571    0.29959    1.000
    N2690    N        0.44358    0.85069    0.26509    1.000
    Si2691   Si       0.41699    0.85222    0.35893    1.000
    N2692    N        0.37738    0.84347    0.34006    1.000
    Si2693   Si       0.36716    0.83392    0.29796    1.000
    N2694    N        0.27798    0.86158    0.39127    1.000
    Si2695   Si       0.32056    0.85797    0.38116    1.000
    Si2696   Si       0.32303    0.85419    0.48679    1.000
    Si2697   Si       0.24514    0.84172    0.47853    1.000
    N2698    N        0.24451    0.88178    0.45947    1.000
    Si2699   Si       0.24588    0.86195    0.41860    1.000
    N2700    N        0.44809    0.86996    0.48954    1.000
    N2701    N        0.28618    0.82980    0.48634    1.000
    N2702    N        0.46283    0.85679    0.42284    1.000
    Si2703   Si       0.45574    0.83885    0.46107    1.000
    Si2704   Si       0.33357    0.85544    0.59914    1.000
    N2705    N        0.33852    0.87825    0.52244    1.000
    N2706    N        0.29937    0.87740    0.58552    1.000
    Si2707   Si       0.26099    0.88599    0.60245    1.000
    N2708    N        0.37152    0.86734    0.58522    1.000
    Si2709   Si       0.40507    0.84901    0.60860    1.000
    Si2710   Si       0.38082    0.87531    0.54020    1.000
    N2711    N        0.39141    0.83364    0.52823    1.000
    N2712    N        0.24768    0.85313    0.62871    1.000
    N2713    N        0.28195    0.84799    0.69017    1.000
    N2714    N        0.47633    0.89020    0.67769    1.000
    Si2715   Si       0.36622    0.87838    0.70036    1.000
    N2716    N        0.42344    0.87602    0.63774    1.000
    Si2717   Si       0.46251    0.85909    0.65317    1.000
    N2718    N        0.38382    0.83933    0.69205    1.000
    N2719    N        0.43726    0.83428    0.58224    1.000
    Si2720   Si       0.33167    0.86149    0.77474    1.000
    Si2721   Si       0.27177    0.87226    0.77745    1.000
    N2722    N        0.28659    0.86907    0.85964    1.000
    N2723    N        0.33923    0.83875    0.81283    1.000
    N2724    N        0.29826    0.84633    0.75371    1.000
    N2725    N        0.26771    0.83913    0.80437    1.000
    N2726    N        0.36184    0.87212    0.74527    1.000
    N2727    N        0.23798    0.88489    0.75585    1.000
    N2728    N        0.35725    0.89359    0.85524    1.000
    Si2729   Si       0.37011    0.85709    0.83719    1.000
    Si2730   Si       0.39778    0.85474    0.76164    1.000
    N2731    N        0.39816    0.86251    0.80502    1.000
    N2732    N        0.46731    0.86695    0.80151    1.000
    Si2733   Si       0.47008    0.86478    0.76026    1.000
    N2734    N        0.43069    0.88232    0.75318    1.000
    Si2735   Si       0.43171    0.88881    0.81032    1.000
    N2736    N        0.44739    0.84466    0.90167    1.000
    Si2737   Si       0.24729    0.86725    0.98294    1.000
    Si2738   Si       0.32224    0.86996    0.98687    1.000
    N2739    N        0.28522    0.87638    0.96451    1.000
    N2740    N        0.34361    0.83399    0.99089    1.000
    Si2741   Si       0.46106    0.88186    0.88572    1.000
    N2742    N        0.40926    0.85490    0.98419    1.000
    Si2743   Si       0.39284    0.88718    0.96052    1.000
    N2744    N        0.39081    0.88100    0.91678    1.000
    Si2745   Si       0.40396    0.84156    0.90355    1.000
    Si2746   Si       0.27559    0.83015    0.84538    1.000
    N2747    N        0.27466    0.90303    0.07936    1.000
    Si2748   Si       0.30855    0.90096    0.11125    1.000
    N2749    N        0.34981    0.90096    0.09400    1.000
    Si2750   Si       0.26739    0.94122    0.05783    1.000
    Si2751   Si       0.35318    0.89314    0.05129    1.000
    N2752    N        0.38133    0.93621    0.14640    1.000
    Si2753   Si       0.48815    0.90367    0.04172    1.000
    N2754    N        0.38411    0.92165    0.03792    1.000
    N2755    N        0.45076    0.92201    0.02901    1.000
    Si2756   Si       0.42073    0.92930    0.06138    1.000
    N2757    N        0.42245    0.90614    0.09968    1.000
    Si2758   Si       0.46261    0.90175    0.11331    1.000
    Si2759   Si       0.38400    0.89936    0.12215    1.000
    Si2760   Si       0.31213    0.94151    0.17300    1.000
    N2761    N        0.33337    0.90751    0.19091    1.000
    Si2762   Si       0.30420    0.91424    0.22529    1.000
    N2763    N        0.30620    0.94014    0.12968    1.000
    N2764    N        0.27743    0.93225    0.19716    1.000
    N2765    N        0.39785    0.90779    0.20832    1.000
    Si2766   Si       0.48432    0.93137    0.18565    1.000
    N2767    N        0.48055    0.93187    0.14138    1.000
    N2768    N        0.46705    0.90522    0.21940    1.000
    Si2769   Si       0.43138    0.93204    0.22363    1.000
    Si2770   Si       0.36841    0.93005    0.18638    1.000
    N2771    N        0.25487    0.91134    0.35363    1.000
    N2772    N        0.30226    0.93056    0.30818    1.000
    Si2773   Si       0.33417    0.89685    0.31602    1.000
    Si2774   Si       0.26568    0.94366    0.32678    1.000
    N2775    N        0.36237    0.91810    0.33900    1.000
    Si2776   Si       0.44650    0.89326    0.40871    1.000
    N2777    N        0.45798    0.90692    0.30284    1.000
    Si2778   Si       0.44383    0.94656    0.30142    1.000
    Si2779   Si       0.27481    0.90938    0.47785    1.000
    Si2780   Si       0.33643    0.91473    0.43478    1.000
    N2781    N        0.31343    0.89181    0.46377    1.000
    N2782    N        0.41132    0.88785    0.38294    1.000
    Si2783   Si       0.37566    0.90932    0.37891    1.000
    Si2784   Si       0.39885    0.94575    0.44109    1.000
    N2785    N        0.43640    0.92387    0.43574    1.000
    N2786    N        0.48034    0.91547    0.39233    1.000
    N2787    N        0.36706    0.92818    0.46362    1.000
    N2788    N        0.25061    0.94632    0.47675    1.000
    N2789    N        0.34436    0.88872    0.40109    1.000
    Si2790   Si       0.30469    0.89840    0.54580    1.000
    N2791    N        0.26968    0.89240    0.52033    1.000
    N2792    N        0.29887    0.94100    0.56280    1.000
    N2793    N        0.36257    0.93206    0.53346    1.000
    Si2794   Si       0.34311    0.91625    0.49658    1.000
    N2795    N        0.24881    0.92440    0.62016    1.000
    N2796    N        0.41754    0.90141    0.53774    1.000
    N2797    N        0.47147    0.93702    0.50787    1.000
    Si2798   Si       0.40312    0.94449    0.54398    1.000
    Si2799   Si       0.45620    0.89768    0.52003    1.000
    N2800    N        0.30434    0.91377    0.73726    1.000
    N2801    N        0.26861    0.92164    0.68776    1.000
    Si2802   Si       0.34250    0.93516    0.66364    1.000
    N2803    N        0.33372    0.89610    0.67767    1.000
    Si2804   Si       0.26747    0.94048    0.73183    1.000
    Si2805   Si       0.26692    0.94888    0.65309    1.000
    N2806    N        0.45528    0.94010    0.72300    1.000
    N2807    N        0.39845    0.90830    0.69292    1.000
    Si2808   Si       0.48146    0.92396    0.64963    1.000
    N2809    N        0.37331    0.92980    0.63338    1.000
    N2810    N        0.44346    0.94114    0.63893    1.000
    Si2811   Si       0.41901    0.91740    0.73001    1.000
    Si2812   Si       0.41014    0.91508    0.65025    1.000
    Si2813   Si       0.48997    0.91666    0.71107    1.000
    N2814    N        0.31158    0.94495    0.50163    1.000
    Si2815   Si       0.29637    0.88958    0.69969    1.000
    Si2816   Si       0.31418    0.93062    0.77622    1.000
    N2817    N        0.31224    0.94040    0.84779    1.000
    Si2818   Si       0.31660    0.89716    0.84117    1.000
    N2819    N        0.31110    0.89403    0.79774    1.000
    N2820    N        0.41512    0.93111    0.80854    1.000
    Si2821   Si       0.42759    0.93699    0.84912    1.000
    N2822    N        0.43688    0.89216    0.85285    1.000
    N2823    N        0.29567    0.94454    0.96210    1.000
    N2824    N        0.35214    0.89737    0.97056    1.000
    Si2825   Si       0.33573    0.93339    0.95562    1.000
    N2826    N        0.26910    0.91768    0.90352    1.000
    N2827    N        0.33716    0.92955    0.91292    1.000
    Si2828   Si       0.27019    0.91360    0.94637    1.000
    Si2829   Si       0.25080    0.88719    0.87657    1.000
    Si2830   Si       0.30203    0.94477    0.89060    1.000
    Si2831   Si       0.44013    0.94325    0.99372    1.000
    N2832    N        0.40253    0.94109    0.88647    1.000
    Si2833   Si       0.37038    0.91142    0.89171    1.000
    Si2834   Si       0.42826    0.93596    0.92398    1.000
    N2835    N        0.46301    0.91611    0.91158    1.000
    N2836    N        0.42018    0.91983    0.96319    1.000
    N2837    N        0.29962    0.96903    0.06578    1.000
    Si2838   Si       0.30236    0.97832    0.10930    1.000
    Si2839   Si       0.32281    0.99731    0.04019    1.000
    N2840    N        0.25562    0.95433    0.01633    1.000
    N2841    N        0.26802    0.00486    0.11563    1.000
    N2842    N        0.34155    0.99766    0.11938    1.000
    N2843    N        0.30835    0.00507    0.00029    1.000
    N2844    N        0.36410    0.98916    0.03979    1.000
    N2845    N        0.42000    0.97141    0.07509    1.000
    N2846    N        0.41672    0.97708    0.00986    1.000
    Si2847   Si       0.37837    0.95666    0.01353    1.000
    Si2848   Si       0.42146    0.00274    0.10523    1.000
    Si2849   Si       0.45196    0.00553    0.00561    1.000
    Si2850   Si       0.40379    0.00310    0.04638    1.000
    Si2851   Si       0.34084    0.98422    0.22381    1.000
    N2852    N        0.34479    0.96914    0.18361    1.000
    N2853    N        0.24697    0.99535    0.19159    1.000
    Si2854   Si       0.24079    0.95440    0.20052    1.000
    N2855    N        0.44672    0.95963    0.19454    1.000
    Si2856   Si       0.36953    0.97976    0.14753    1.000
    N2857    N        0.40947    0.99437    0.14506    1.000
    Si2858   Si       0.44252    0.99779    0.17438    1.000
    N2859    N        0.38239    0.99519    0.23004    1.000
    N2860    N        0.31899    0.95234    0.24481    1.000
    N2861    N        0.34878    0.98562    0.35819    1.000
    N2862    N        0.27385    0.97873    0.35337    1.000
    Si2863   Si       0.32345    0.96349    0.28586    1.000
    Si2864   Si       0.30951    0.00349    0.34254    1.000
    N2865    N        0.30659    0.00119    0.29904    1.000
    N2866    N        0.36579    0.97018    0.29090    1.000
    N2867    N        0.41793    0.96020    0.33292    1.000
    Si2868   Si       0.39864    0.98465    0.26860    1.000
    N2869    N        0.47513    0.97511    0.31508    1.000
    Si2870   Si       0.44940    0.98124    0.35176    1.000
    Si2871   Si       0.37357    0.95997    0.33058    1.000
    N2872    N        0.42460    0.95001    0.26361    1.000
    Si2873   Si       0.34754    0.97700    0.40127    1.000
    Si2874   Si       0.28115    0.97478    0.48928    1.000
    N2875    N        0.31477    0.94965    0.41905    1.000
    N2876    N        0.37873    0.94654    0.40137    1.000
    Si2877   Si       0.47371    0.95078    0.41873    1.000
    N2878    N        0.40050    0.99004    0.45005    1.000
    N2879    N        0.44890    0.97795    0.39369    1.000
    N2880    N        0.46679    0.98186    0.45439    1.000
    Si2881   Si       0.38843    0.99718    0.49098    1.000
    Si2882   Si       0.43566    0.00246    0.43004    1.000
    N2883    N        0.27936    0.00477    0.46055    1.000
    Si2884   Si       0.33378    0.96431    0.53835    1.000
    N2885    N        0.26605    0.98628    0.59350    1.000
    N2886    N        0.34579    0.98149    0.58307    1.000
    Si2887   Si       0.25971    0.96319    0.55655    1.000
    N2888    N        0.26456    0.99321    0.52628    1.000
    Si2889   Si       0.30636    0.96858    0.60094    1.000
    N2890    N        0.35022    0.99627    0.51377    1.000
    Si2891   Si       0.38114    0.97940    0.71518    1.000
    Si2892   Si       0.37650    0.96489    0.60917    1.000
    Si2893   Si       0.44567    0.97136    0.60797    1.000
    N2894    N        0.41669    0.97118    0.51228    1.000
    N2895    N        0.41085    0.95950    0.58355    1.000
    N2896    N        0.47945    0.97422    0.57967    1.000
    N2897    N        0.48881    0.00320    0.70882    1.000
    Si2898   Si       0.45693    0.97554    0.49737    1.000
    N2899    N        0.34773    0.96844    0.69020    1.000
    N2900    N        0.27974    0.97987    0.71952    1.000
    Si2901   Si       0.33338    0.99922    0.65720    1.000
    N2902    N        0.30941    0.95751    0.64129    1.000
    N2903    N        0.37452    0.99960    0.63544    1.000
    N2904    N        0.41588    0.98968    0.69342    1.000
    Si2905   Si       0.45226    0.98330    0.71900    1.000
    N2906    N        0.39345    0.95102    0.74429    1.000
    Si2907   Si       0.26904    0.98431    0.80418    1.000
    Si2908   Si       0.33332    0.97208    0.82797    1.000
    N2909    N        0.24609    0.98483    0.84121    1.000
    N2910    N        0.30552    0.00295    0.81567    1.000
    N2911    N        0.36569    0.98979    0.85393    1.000
    N2912    N        0.27786    0.95096    0.77925    1.000
    N2913    N        0.34719    0.95305    0.79236    1.000
    N2914    N        0.40038    0.99934    0.80023    1.000
    N2915    N        0.46534    0.95724    0.84658    1.000
    Si2916   Si       0.38862    0.96000    0.78663    1.000
    Si2917   Si       0.47145    0.99909    0.86588    1.000
    N2918    N        0.44447    0.00686    0.75499    1.000
    N2919    N        0.24760    0.99804    0.95774    1.000
    N2920    N        0.29114    0.98599    0.89436    1.000
    Si2921   Si       0.27852    0.97856    0.98468    1.000
    Si2922   Si       0.25085    0.00047    0.88095    1.000
    N2923    N        0.36388    0.00020    0.91727    1.000
    N2924    N        0.36389    0.96158    0.97398    1.000
    Si2925   Si       0.39175    0.98343    0.89119    1.000
    N2926    N        0.47863    0.97847    0.90604    1.000
    N2927    N        0.47317    0.96724    0.97606    1.000
    Si2928   Si       0.46583    0.99894    0.94342    1.000
    N2929    N        0.42023    0.97890    0.93306    1.000
    Si2930   Si       0.38652    0.99431    0.95540    1.000
    N2931    N        0.52307    0.05108    0.06565    1.000
    Si2932   Si       0.54792    0.05589    0.10209    1.000
    N2933    N        0.56382    0.01761    0.11092    1.000
    N2934    N        0.54539    0.04681    0.00151    1.000
    Si2935   Si       0.51333    0.00906    0.05864    1.000
    N2936    N        0.60201    0.00935    0.01138    1.000
    N2937    N        0.61351    0.06604    0.04835    1.000
    N2938    N        0.72659    0.01294    0.07506    1.000
    Si2939   Si       0.62332    0.02303    0.05235    1.000
    N2940    N        0.63660    0.03763    0.09927    1.000
    N2941    N        0.51298    0.06037    0.13055    1.000
    N2942    N        0.60394    0.05336    0.21718    1.000
    Si2943   Si       0.58416    0.02261    0.15050    1.000
    Si2944   Si       0.58337    0.01620    0.21724    1.000
    N2945    N        0.50274    0.03335    0.22173    1.000
    N2946    N        0.59122    0.06414    0.15410    1.000
    N2947    N        0.55758    0.01211    0.18341    1.000
    Si2948   Si       0.72826    0.01334    0.15719    1.000
    Si2949   Si       0.48785    0.02484    0.12400    1.000
    N2950    N        0.68743    0.02643    0.14703    1.000
    Si2951   Si       0.73070    0.06007    0.21272    1.000
    N2952    N        0.73125    0.01815    0.20173    1.000
    Si2953   Si       0.73848    0.05069    0.09557    1.000
    N2954    N        0.49275    0.00982    0.01956    1.000
    Si2955   Si       0.52633    0.03645    0.25956    1.000
    N2956    N        0.50200    0.02441    0.29175    1.000
    Si2957   Si       0.60243    0.05321    0.35194    1.000
    Si2958   Si       0.54349    0.04269    0.36249    1.000
    N2959    N        0.56694    0.06246    0.32968    1.000
    N2960    N        0.74021    0.02042    0.33506    1.000
    N2961    N        0.64615    0.02527    0.26414    1.000
    Si2962   Si       0.70634    0.04707    0.34944    1.000
    N2963    N        0.63056    0.02174    0.33981    1.000
    N2964    N        0.71697    0.01925    0.26918    1.000
    N2965    N        0.68165    0.05380    0.31453    1.000
    Si2966   Si       0.65751    0.01975    0.30643    1.000
    Si2967   Si       0.70664    0.05971    0.27865    1.000
    Si2968   Si       0.62820    0.06322    0.25055    1.000
    N2969    N        0.57912    0.04419    0.38771    1.000
    N2970    N        0.58190    0.02074    0.45010    1.000
    Si2971   Si       0.60474    0.05160    0.42364    1.000
    N2972    N        0.51073    0.03408    0.45930    1.000
    Si2973   Si       0.59251    0.02441    0.49286    1.000
    Si2974   Si       0.54573    0.06351    0.46218    1.000
    N2975    N        0.62929    0.04585    0.49287    1.000
    Si2976   Si       0.66883    0.03942    0.42589    1.000
    Si2977   Si       0.72481    0.04466    0.45881    1.000
    N2978    N        0.68393    0.03063    0.38415    1.000
    N2979    N        0.63324    0.01572    0.41417    1.000
    N2980    N        0.68652    0.02228    0.46268    1.000
    Si2981   Si       0.53629    0.05204    0.53921    1.000
    N2982    N        0.55991    0.05334    0.50428    1.000
    N2983    N        0.52636    0.01186    0.54795    1.000
    N2984    N        0.58585    0.01088    0.62078    1.000
    N2985    N        0.63744    0.02596    0.57734    1.000
    Si2986   Si       0.67907    0.03920    0.57411    1.000
    N2987    N        0.67688    0.05751    0.53077    1.000
    Si2988   Si       0.66663    0.02548    0.50286    1.000
    Si2989   Si       0.62371    0.02984    0.61828    1.000
    N2990    N        0.72889    0.05539    0.56754    1.000
    N2991    N        0.72734    0.05166    0.66365    1.000
    N2992    N        0.56671    0.05211    0.67301    1.000
    N2993    N        0.51330    0.03448    0.63310    1.000
    Si2994   Si       0.51170    0.03415    0.73053    1.000
    Si2995   Si       0.52705    0.06478    0.66122    1.000
    Si2996   Si       0.57232    0.01525    0.69567    1.000
    N2997    N        0.54736    0.00764    0.73232    1.000
    N2998    N        0.50776    0.06643    0.70160    1.000
    Si2999   Si       0.64159    0.01535    0.68512    1.000
    Si3000   Si       0.72830    0.05640    0.61914    1.000
    N3001    N        0.73409    0.00674    0.71392    1.000
    N3002    N        0.62985    0.05611    0.69585    1.000
    Si3003   Si       0.69773    0.02625    0.73346    1.000
    Si3004   Si       0.52337    0.02126    0.81881    1.000
    Si3005   Si       0.58411    0.05063    0.79476    1.000
    N3006    N        0.50152    0.03999    0.77126    1.000
    N3007    N        0.59199    0.05310    0.83839    1.000
    N3008    N        0.56287    0.01277    0.79815    1.000
    N3009    N        0.52001    0.06293    0.83253    1.000
    N3010    N        0.62447    0.05612    0.77854    1.000
    Si3011   Si       0.65275    0.02829    0.79531    1.000
    N3012    N        0.66388    0.04456    0.83566    1.000
    Si3013   Si       0.72384    0.02455    0.80420    1.000
    N3014    N        0.68928    0.02171    0.77536    1.000
    Si3015   Si       0.62895    0.05088    0.85943    1.000
    N3016    N        0.72815    0.06499    0.81640    1.000
    Si3017   Si       0.58503    0.04364    0.98635    1.000
    Si3018   Si       0.51334    0.04856    0.91517    1.000
    N3019    N        0.50622    0.02206    0.94679    1.000
    Si3020   Si       0.58089    0.02668    0.90633    1.000
    N3021    N        0.54914    0.05154    0.89062    1.000
    N3022    N        0.59210    0.04388    0.94385    1.000
    Si3023   Si       0.52042    0.01561    0.98577    1.000
    Si3024   Si       0.72395    0.02118    0.92392    1.000
    N3025    N        0.65463    0.01626    0.96149    1.000
    N3026    N        0.71228    0.04573    0.95587    1.000
    N3027    N        0.62260    0.01913    0.88831    1.000
    Si3028   Si       0.67254    0.05627    0.96849    1.000
    N3029    N        0.57337    0.09133    0.10050    1.000
    N3030    N        0.53659    0.11519    0.03754    1.000
    Si3031   Si       0.55909    0.12190    0.07438    1.000
    Si3032   Si       0.52428    0.07142    0.02878    1.000
    Si3033   Si       0.61739    0.07682    0.09089    1.000
    Si3034   Si       0.62743    0.09238    0.01713    1.000
    N3035    N        0.64579    0.11074    0.09349    1.000
    N3036    N        0.70463    0.07626    0.10907    1.000
    Si3037   Si       0.68901    0.11564    0.09572    1.000
    N3038    N        0.66637    0.07803    0.00429    1.000
    Si3039   Si       0.69416    0.11150    0.01199    1.000
    N3040    N        0.70292    0.11626    0.05413    1.000
    N3041    N        0.73432    0.08951    0.00595    1.000
    N3042    N        0.53102    0.11762    0.15784    1.000
    Si3043   Si       0.57047    0.10142    0.14420    1.000
    Si3044   Si       0.49496    0.09503    0.14969    1.000
    N3045    N        0.59623    0.12105    0.17265    1.000
    N3046    N        0.65675    0.08424    0.16943    1.000
    Si3047   Si       0.61526    0.08432    0.18696    1.000
    N3048    N        0.71592    0.08372    0.17971    1.000
    N3049    N        0.69829    0.07271    0.23926    1.000
    Si3050   Si       0.68139    0.09980    0.20391    1.000
    N3051    N        0.64037    0.10106    0.22760    1.000
    Si3052   Si       0.69001    0.06900    0.14821    1.000
    Si3053   Si       0.57512    0.08925    0.29737    1.000
    N3054    N        0.54410    0.07636    0.26803    1.000
    Si3055   Si       0.53029    0.11682    0.26494    1.000
    N3056    N        0.49323    0.12061    0.28518    1.000
    N3057    N        0.61912    0.08194    0.28980    1.000
    N3058    N        0.72459    0.08524    0.35965    1.000
    Si3059   Si       0.65104    0.08843    0.32080    1.000
    N3060    N        0.62820    0.08856    0.35762    1.000
    Si3061   Si       0.71922    0.11284    0.32509    1.000
    N3062    N        0.73664    0.08783    0.29374    1.000
    N3063    N        0.67471    0.12259    0.32021    1.000
    N3064    N        0.50905    0.06403    0.37223    1.000
    N3065    N        0.57946    0.08392    0.44191    1.000
    N3066    N        0.52204    0.09989    0.46747    1.000
    N3067    N        0.64408    0.07737    0.42259    1.000
    Si3068   Si       0.67298    0.10428    0.44213    1.000
    Si3069   Si       0.63791    0.11345    0.39278    1.000
    N3070    N        0.71107    0.08202    0.44104    1.000
    N3071    N        0.65812    0.10998    0.48378    1.000
    Si3072   Si       0.57655    0.10169    0.55906    1.000
    Si3073   Si       0.51954    0.11118    0.50876    1.000
    N3074    N        0.50055    0.07249    0.52306    1.000
    N3075    N        0.55308    0.07063    0.57302    1.000
    N3076    N        0.55807    0.12243    0.52554    1.000
    N3077    N        0.61801    0.09613    0.54367    1.000
    N3078    N        0.71523    0.11413    0.51888    1.000
    Si3079   Si       0.63961    0.08339    0.51125    1.000
    Si3080   Si       0.71642    0.07253    0.52976    1.000
    N3081    N        0.68561    0.06613    0.61137    1.000
    Si3082   Si       0.48893    0.11672    0.62568    1.000
    N3083    N        0.52816    0.10420    0.64199    1.000
    N3084    N        0.58651    0.11513    0.68446    1.000
    Si3085   Si       0.60252    0.07722    0.66929    1.000
    N3086    N        0.69421    0.06763    0.72222    1.000
    Si3087   Si       0.65877    0.08528    0.70945    1.000
    N3088    N        0.62220    0.07162    0.63228    1.000
    N3089    N        0.63678    0.10976    0.73835    1.000
    N3090    N        0.66449    0.10786    0.67076    1.000
    Si3091   Si       0.72969    0.07794    0.69857    1.000
    Si3092   Si       0.65838    0.09438    0.62987    1.000
    N3093    N        0.72668    0.12080    0.68589    1.000
    N3094    N        0.55800    0.08408    0.78537    1.000
    Si3095   Si       0.50980    0.08031    0.78902    1.000
    N3096    N        0.50153    0.11276    0.75733    1.000
    Si3097   Si       0.55575    0.07340    0.85422    1.000
    N3098    N        0.56563    0.11527    0.85924    1.000
    Si3099   Si       0.69180    0.07821    0.83645    1.000
    N3100    N        0.67401    0.10385    0.80615    1.000
    Si3101   Si       0.63742    0.09913    0.78053    1.000
    N3102    N        0.50835    0.08956    0.92816    1.000
    N3103    N        0.60312    0.08408    0.98521    1.000
    Si3104   Si       0.61265    0.08427    0.94343    1.000
    Si3105   Si       0.73879    0.08211    0.89429    1.000
    N3106    N        0.69928    0.08584    0.87849    1.000
    N3107    N        0.63404    0.09208    0.87619    1.000
    Si3108   Si       0.66757    0.10128    0.90362    1.000
    N3109    N        0.65596    0.08216    0.93907    1.000
    N3110    N        0.61187    0.12611    0.80275    1.000
    Si3111   Si       0.57061    0.12526    0.78881    1.000
    Si3112   Si       0.60299    0.12356    0.87819    1.000
    N3113    N        0.58984    0.14933    0.06401    1.000
    N3114    N        0.53725    0.15377    0.09549    1.000
    Si3115   Si       0.54976    0.15755    0.01521    1.000
    Si3116   Si       0.49313    0.15219    0.10089    1.000
    Si3117   Si       0.49332    0.12598    0.02541    1.000
    Si3118   Si       0.56239    0.18415    0.07799    1.000
    Si3119   Si       0.62245    0.16616    0.00844    1.000
    Si3120   Si       0.63184    0.14405    0.06968    1.000
    N3121    N        0.63900    0.13190    0.02914    1.000
    N3122    N        0.65424    0.17642    0.08569    1.000
    Si3123   Si       0.52703    0.14936    0.18598    1.000
    Si3124   Si       0.59983    0.16278    0.18026    1.000
    N3125    N        0.55909    0.17965    0.17614    1.000
    N3126    N        0.53403    0.13333    0.22593    1.000
    N3127    N        0.61154    0.16677    0.22200    1.000
    N3128    N        0.68377    0.14177    0.21446    1.000
    Si3129   Si       0.64688    0.14275    0.23750    1.000
    N3130    N        0.70040    0.14818    0.12347    1.000
    N3131    N        0.63041    0.17753    0.15152    1.000
    Si3132   Si       0.72860    0.17570    0.14293    1.000
    Si3133   Si       0.72110    0.16558    0.21679    1.000
    Si3134   Si       0.66723    0.17848    0.12679    1.000
    Si3135   Si       0.55568    0.16946    0.31254    1.000
    N3136    N        0.56435    0.17371    0.35691    1.000
    N3137    N        0.49899    0.13644    0.36078    1.000
    N3138    N        0.55961    0.13072    0.29633    1.000
    N3139    N        0.51365    0.18256    0.31370    1.000
    N3140    N        0.64249    0.16540    0.27521    1.000
    Si3141   Si       0.65837    0.16192    0.31502    1.000
    N3142    N        0.63211    0.16889    0.34839    1.000
    N3143    N        0.73156    0.15311    0.33102    1.000
    Si3144   Si       0.73741    0.17809    0.29256    1.000
    N3145    N        0.74032    0.15690    0.25457    1.000
    Si3146   Si       0.60205    0.17406    0.37767    1.000
    Si3147   Si       0.52828    0.16550    0.37978    1.000
    N3148    N        0.58231    0.15678    0.46378    1.000
    N3149    N        0.60538    0.13923    0.40149    1.000
    N3150    N        0.53822    0.13920    0.41444    1.000
    Si3151   Si       0.50423    0.12916    0.43933    1.000
    Si3152   Si       0.57649    0.12780    0.43249    1.000
    N3153    N        0.66921    0.13422    0.41116    1.000
    Si3154   Si       0.68833    0.13793    0.49502    1.000
    Si3155   Si       0.69267    0.16735    0.42421    1.000
    N3156    N        0.70887    0.14352    0.45817    1.000
    Si3157   Si       0.74102    0.16264    0.37277    1.000
    Si3158   Si       0.58038    0.16919    0.60734    1.000
    Si3159   Si       0.58320    0.15383    0.50848    1.000
    N3160    N        0.58838    0.12995    0.58957    1.000
    N3161    N        0.49383    0.14423    0.51764    1.000
    N3162    N        0.49745    0.18007    0.58115    1.000
    N3163    N        0.61566    0.16309    0.54018    1.000
    Si3164   Si       0.66119    0.16722    0.61219    1.000
    Si3165   Si       0.62734    0.13019    0.56923    1.000
    N3166    N        0.67628    0.17826    0.50668    1.000
    N3167    N        0.65471    0.12610    0.60102    1.000
    N3168    N        0.61774    0.16941    0.69884    1.000
    Si3169   Si       0.49268    0.16777    0.68315    1.000
    N3170    N        0.56259    0.16291    0.64642    1.000
    N3171    N        0.51606    0.13362    0.70016    1.000
    Si3172   Si       0.60357    0.13284    0.72081    1.000
    Si3173   Si       0.59859    0.18082    0.66162    1.000
    Si3174   Si       0.52842    0.14457    0.74298    1.000
    Si3175   Si       0.54724    0.12997    0.66861    1.000
    N3176    N        0.57066    0.13904    0.74804    1.000
    N3177    N        0.62085    0.17928    0.62464    1.000
    N3178    N        0.69143    0.16835    0.64270    1.000
    N3179    N        0.68179    0.16755    0.71181    1.000
    Si3180   Si       0.69122    0.14169    0.67645    1.000
    N3181    N        0.54720    0.15488    0.80648    1.000
    Si3182   Si       0.54008    0.14755    0.84917    1.000
    N3183    N        0.51180    0.18265    0.75681    1.000
    N3184    N        0.64009    0.16296    0.96851    1.000
    N3185    N        0.67391    0.14399    0.91273    1.000
    N3186    N        0.72584    0.14986    0.78055    1.000
    Si3187   Si       0.62329    0.16487    0.81798    1.000
    N3188    N        0.62573    0.15600    0.86108    1.000
    N3189    N        0.66072    0.17054    0.79570    1.000
    Si3190   Si       0.69182    0.14329    0.80695    1.000
    N3191    N        0.69976    0.15769    0.84749    1.000
    N3192    N        0.50417    0.13449    0.86979    1.000
    Si3193   Si       0.72846    0.17561    0.98569    1.000
    Si3194   Si       0.60108    0.15862    0.94821    1.000
    Si3195   Si       0.50009    0.16878    0.95882    1.000
    N3196    N        0.53333    0.16235    0.92895    1.000
    N3197    N        0.58169    0.16277    0.98661    1.000
    Si3198   Si       0.50762    0.12874    0.91349    1.000
    N3199    N        0.51042    0.15108    0.99523    1.000
    N3200    N        0.70291    0.14113    0.98189    1.000
    Si3201   Si       0.68018    0.16014    0.95274    1.000
    Si3202   Si       0.66819    0.16448    0.87613    1.000
    N3203    N        0.60094    0.12268    0.92537    1.000
    Si3204   Si       0.71209    0.17362    0.74353    1.000
    N3205    N        0.59441    0.21234    0.08960    1.000
    N3206    N        0.53372    0.22371    0.09301    1.000
    Si3207   Si       0.52967    0.22960    0.04913    1.000
    N3208    N        0.54571    0.19118    0.03974    1.000
    N3209    N        0.49125    0.23371    0.02968    1.000
    Si3210   Si       0.56898    0.23986    0.11351    1.000
    Si3211   Si       0.49926    0.22659    0.11901    1.000
    N3212    N        0.62776    0.20052    0.03153    1.000
    Si3213   Si       0.63559    0.21472    0.07571    1.000
    N3214    N        0.65002    0.23318    0.11842    1.000
    Si3215   Si       0.55267    0.22126    0.18043    1.000
    N3216    N        0.58525    0.23146    0.15314    1.000
    N3217    N        0.55756    0.24032    0.21873    1.000
    N3218    N        0.51788    0.23992    0.15668    1.000
    N3219    N        0.71062    0.20816    0.21666    1.000
    N3220    N        0.64372    0.23108    0.19276    1.000
    Si3221   Si       0.62571    0.22090    0.15414    1.000
    Si3222   Si       0.68691    0.22763    0.18644    1.000
    N3223    N        0.69658    0.20468    0.14932    1.000
    Si3224   Si       0.71886    0.23888    0.24611    1.000
    Si3225   Si       0.55113    0.23068    0.26305    1.000
    N3226    N        0.57106    0.19595    0.28084    1.000
    N3227    N        0.50827    0.23236    0.26785    1.000
    Si3228   Si       0.49616    0.22133    0.30645    1.000
    Si3229   Si       0.60833    0.18774    0.25933    1.000
    N3230    N        0.61553    0.24256    0.33222    1.000
    N3231    N        0.62158    0.22974    0.25905    1.000
    Si3232   Si       0.64360    0.21340    0.35185    1.000
    N3233    N        0.67449    0.20263    0.32435    1.000
    N3234    N        0.71887    0.21553    0.28340    1.000
    Si3235   Si       0.70201    0.23625    0.31845    1.000
    N3236    N        0.73698    0.22881    0.34509    1.000
    Si3237   Si       0.57240    0.20047    0.46832    1.000
    N3238    N        0.50800    0.19925    0.39797    1.000
    N3239    N        0.54347    0.23086    0.44889    1.000
    Si3240   Si       0.52841    0.23649    0.40703    1.000
    N3241    N        0.61198    0.21967    0.46616    1.000
    N3242    N        0.61582    0.21497    0.39078    1.000
    N3243    N        0.67198    0.24056    0.37206    1.000
    N3244    N        0.71547    0.18953    0.39481    1.000
    N3245    N        0.67310    0.20271    0.44182    1.000
    Si3246   Si       0.63668    0.22288    0.42918    1.000
    Si3247   Si       0.69462    0.20841    0.47662    1.000
    Si3248   Si       0.71383    0.22998    0.38404    1.000
    N3249    N        0.73891    0.21669    0.46968    1.000
    Si3250   Si       0.52479    0.21358    0.58353    1.000
    Si3251   Si       0.58922    0.20103    0.54484    1.000
    N3252    N        0.56323    0.19745    0.57868    1.000
    N3253    N        0.56537    0.19269    0.51052    1.000
    N3254    N        0.62497    0.22599    0.53835    1.000
    N3255    N        0.71624    0.23321    0.55880    1.000
    Si3256   Si       0.71590    0.18977    0.55630    1.000
    Si3257   Si       0.64906    0.18809    0.53749    1.000
    N3258    N        0.67688    0.24151    0.49950    1.000
    N3259    N        0.51867    0.21827    0.62749    1.000
    Si3260   Si       0.52840    0.21566    0.73262    1.000
    N3261    N        0.58201    0.22248    0.66234    1.000
    Si3262   Si       0.53949    0.22535    0.66266    1.000
    N3263    N        0.52220    0.19904    0.69313    1.000
    Si3264   Si       0.72916    0.18802    0.63110    1.000
    N3265    N        0.72975    0.23103    0.63092    1.000
    Si3266   Si       0.64966    0.19773    0.70985    1.000
    N3267    N        0.65026    0.23100    0.67991    1.000
    N3268    N        0.64067    0.21608    0.74745    1.000
    Si3269   Si       0.63341    0.23974    0.49770    1.000
    N3270    N        0.67381    0.18009    0.57208    1.000
    N3271    N        0.52076    0.21804    0.81327    1.000
    N3272    N        0.59607    0.19856    0.80956    1.000
    Si3273   Si       0.55567    0.19702    0.79358    1.000
    N3274    N        0.56305    0.22307    0.75821    1.000
    Si3275   Si       0.48940    0.19114    0.79418    1.000
    N3276    N        0.54711    0.18681    0.86808    1.000
    Si3277   Si       0.51759    0.22165    0.86289    1.000
    Si3278   Si       0.61414    0.23833    0.82243    1.000
    Si3279   Si       0.66637    0.21070    0.78179    1.000
    N3280    N        0.71941    0.22409    0.85255    1.000
    N3281    N        0.70538    0.21350    0.76217    1.000
    N3282    N        0.65682    0.22849    0.82029    1.000
    Si3283   Si       0.67850    0.23538    0.85708    1.000
    Si3284   Si       0.73411    0.18392    0.85656    1.000
    Si3285   Si       0.55613    0.19422    0.91013    1.000
    N3286    N        0.59798    0.19419    0.92034    1.000
    N3287    N        0.53563    0.23214    0.91015    1.000
    N3288    N        0.66826    0.20669    0.88896    1.000
    Si3289   Si       0.69501    0.23995    0.97068    1.000
    Si3290   Si       0.70551    0.21317    0.91585    1.000
    Si3291   Si       0.62624    0.21923    0.89915    1.000
    N3292    N        0.70158    0.19963    0.95885    1.000
    N3293    N        0.54929    0.26862    0.04063    1.000
    N3294    N        0.56665    0.28233    0.10567    1.000
    Si3295   Si       0.56050    0.27819    0.99939    1.000
    Si3296   Si       0.54550    0.29737    0.07197    1.000
    Si3297   Si       0.64339    0.27395    0.09921    1.000
    N3298    N        0.68523    0.28109    0.09964    1.000
    N3299    N        0.63616    0.25515    0.05994    1.000
    Si3300   Si       0.72716    0.28338    0.08812    1.000
    Si3301   Si       0.63054    0.24321    0.01757    1.000
    N3302    N        0.72315    0.25759    0.99746    1.000
    N3303    N        0.51151    0.28487    0.21425    1.000
    Si3304   Si       0.51621    0.28316    0.16967    1.000
    Si3305   Si       0.55669    0.28369    0.21514    1.000
    N3306    N        0.55897    0.29215    0.17258    1.000
    N3307    N        0.73700    0.26101    0.12675    1.000
    N3308    N        0.62685    0.29446    0.13685    1.000
    Si3309   Si       0.72477    0.28991    0.15794    1.000
    N3310    N        0.68351    0.26297    0.24216    1.000
    N3311    N        0.68686    0.26665    0.16592    1.000
    Si3312   Si       0.64227    0.25343    0.22932    1.000
    N3313    N        0.62717    0.28993    0.21090    1.000
    Si3314   Si       0.65162    0.29409    0.17344    1.000
    Si3315   Si       0.69203    0.24525    0.12587    1.000
    N3316    N        0.56825    0.26641    0.28158    1.000
    Si3317   Si       0.52303    0.27490    0.35742    1.000
    N3318    N        0.49390    0.25482    0.33525    1.000
    Si3319   Si       0.60961    0.25704    0.29251    1.000
    Si3320   Si       0.59765    0.25083    0.37124    1.000
    Si3321   Si       0.63227    0.29713    0.45637    1.000
    N3322    N        0.69274    0.27837    0.31231    1.000
    N3323    N        0.63511    0.28976    0.28103    1.000
    Si3324   Si       0.67797    0.29259    0.27273    1.000
    N3325    N        0.62041    0.27989    0.49225    1.000
    N3326    N        0.55503    0.24864    0.37451    1.000
    Si3327   Si       0.52934    0.26407    0.47508    1.000
    N3328    N        0.50538    0.27441    0.40103    1.000
    N3329    N        0.64793    0.26578    0.43140    1.000
    N3330    N        0.61401    0.28935    0.37886    1.000
    Si3331   Si       0.65603    0.27995    0.39029    1.000
    N3332    N        0.73359    0.26067    0.41169    1.000
    Si3333   Si       0.51772    0.27253    0.53458    1.000
    N3334    N        0.55332    0.26942    0.51048    1.000
    N3335    N        0.59604    0.29101    0.56068    1.000
    Si3336   Si       0.60688    0.29285    0.61439    1.000
    Si3337   Si       0.58610    0.29355    0.51665    1.000
    N3338    N        0.49253    0.26365    0.49975    1.000
    N3339    N        0.50142    0.24525    0.56493    1.000
    N3340    N        0.62191    0.25222    0.60930    1.000
    Si3341   Si       0.69744    0.26237    0.53180    1.000
    N3342    N        0.66545    0.27871    0.55666    1.000
    Si3343   Si       0.62663    0.25914    0.56600    1.000
    N3344    N        0.71032    0.29003    0.60474    1.000
    N3345    N        0.72686    0.29161    0.52158    1.000
    Si3346   Si       0.73264    0.25552    0.59403    1.000
    Si3347   Si       0.67592    0.26438    0.69816    1.000
    N3348    N        0.53436    0.26228    0.68317    1.000
    N3349    N        0.58605    0.28608    0.72570    1.000
    Si3350   Si       0.56924    0.29182    0.68497    1.000
    N3351    N        0.60589    0.28497    0.65991    1.000
    Si3352   Si       0.49223    0.26241    0.69695    1.000
    N3353    N        0.50002    0.24704    0.73817    1.000
    Si3354   Si       0.61899    0.24303    0.65312    1.000
    N3355    N        0.65982    0.28621    0.73263    1.000
    N3356    N        0.68025    0.29674    0.66987    1.000
    N3357    N        0.71521    0.24551    0.70043    1.000
    Si3358   Si       0.72683    0.24592    0.74276    1.000
    Si3359   Si       0.51352    0.26057    0.81194    1.000
    N3360    N        0.54619    0.28388    0.79085    1.000
    N3361    N        0.51373    0.26433    0.85457    1.000
    Si3362   Si       0.57437    0.26285    0.76362    1.000
    N3363    N        0.60605    0.24338    0.86517    1.000
    N3364    N        0.60902    0.26842    0.79023    1.000
    N3365    N        0.72291    0.28550    0.75756    1.000
    N3366    N        0.67999    0.27804    0.86401    1.000
    N3367    N        0.73424    0.28541    0.82460    1.000
    Si3368   Si       0.59455    0.27977    0.89202    1.000
    Si3369   Si       0.54001    0.26898    0.93161    1.000
    N3370    N        0.52966    0.26135    0.97242    1.000
    N3371    N        0.57828    0.28739    0.93679    1.000
    N3372    N        0.51120    0.29650    0.91430    1.000
    Si3373   Si       0.49544    0.24054    0.98891    1.000
    N3374    N        0.59680    0.25580    0.99229    1.000
    N3375    N        0.70525    0.25488    0.92885    1.000
    Si3376   Si       0.73391    0.29868    0.99081    1.000
    N3377    N        0.65521    0.25038    0.98274    1.000
    N3378    N        0.63153    0.25918    0.91740    1.000
    Si3379   Si       0.72442    0.29303    0.91892    1.000
    Si3380   Si       0.66024    0.28981    0.89994    1.000
    Si3381   Si       0.62173    0.26992    0.96026    1.000
    N3382    N        0.56993    0.33150    0.06254    1.000
    N3383    N        0.50737    0.31914    0.08368    1.000
    Si3384   Si       0.56276    0.35099    0.02496    1.000
    N3385    N        0.48669    0.30837    0.15099    1.000
    Si3386   Si       0.50556    0.35796    0.06572    1.000
    N3387    N        0.65613    0.35441    0.03920    1.000
    Si3388   Si       0.69111    0.35349    0.01424    1.000
    N3389    N        0.73453    0.35531    0.02129    1.000
    Si3390   Si       0.49203    0.31932    0.23575    1.000
    N3391    N        0.57462    0.34733    0.13551    1.000
    N3392    N        0.57142    0.31924    0.23499    1.000
    Si3393   Si       0.55127    0.35646    0.24242    1.000
    N3394    N        0.61168    0.35432    0.19329    1.000
    Si3395   Si       0.61212    0.32608    0.22783    1.000
    Si3396   Si       0.58390    0.30465    0.13811    1.000
    N3397    N        0.67600    0.32646    0.18702    1.000
    Si3398   Si       0.69735    0.34457    0.21913    1.000
    N3399    N        0.73583    0.33006    0.14719    1.000
    N3400    N        0.73807    0.35896    0.21373    1.000
    N3401    N        0.52207    0.33386    0.26560    1.000
    N3402    N        0.58179    0.33170    0.30563    1.000
    Si3403   Si       0.55702    0.34248    0.34198    1.000
    Si3404   Si       0.49562    0.35488    0.29542    1.000
    Si3405   Si       0.55119    0.30523    0.28735    1.000
    Si3406   Si       0.62156    0.33006    0.29350    1.000
    N3407    N        0.64781    0.33529    0.32809    1.000
    Si3408   Si       0.68477    0.31384    0.33743    1.000
    N3409    N        0.71173    0.34648    0.32589    1.000
    N3410    N        0.69354    0.33149    0.26041    1.000
    N3411    N        0.62644    0.35199    0.25764    1.000
    N3412    N        0.49635    0.34424    0.42314    1.000
    Si3413   Si       0.52265    0.31104    0.41648    1.000
    Si3414   Si       0.56709    0.33299    0.46101    1.000
    N3415    N        0.55517    0.32510    0.38553    1.000
    Si3416   Si       0.59893    0.32813    0.39240    1.000
    N3417    N        0.59972    0.32073    0.43650    1.000
    N3418    N        0.72854    0.32789    0.43614    1.000
    N3419    N        0.68969    0.30326    0.37841    1.000
    Si3420   Si       0.70126    0.34681    0.46223    1.000
    N3421    N        0.63920    0.35146    0.39538    1.000
    N3422    N        0.66221    0.32834    0.46092    1.000
    N3423    N        0.53381    0.30429    0.32788    1.000
    Si3424   Si       0.72588    0.30210    0.40081    1.000
    N3425    N        0.53675    0.30146    0.45704    1.000
    Si3426   Si       0.56400    0.32092    0.57285    1.000
    N3427    N        0.57254    0.31943    0.61501    1.000
    N3428    N        0.58373    0.33400    0.50101    1.000
    N3429    N        0.52604    0.30668    0.55958    1.000
    Si3430   Si       0.49330    0.32116    0.58678    1.000
    N3431    N        0.48378    0.35887    0.57236    1.000
    N3432    N        0.69024    0.33996    0.56261    1.000
    Si3433   Si       0.72062    0.33506    0.53223    1.000
    Si3434   Si       0.67616    0.30837    0.58773    1.000
    N3435    N        0.64455    0.31441    0.61657    1.000
    Si3436   Si       0.50330    0.32732    0.67008    1.000
    N3437    N        0.54625    0.33032    0.67743    1.000
    Si3438   Si       0.56372    0.35246    0.64350    1.000
    N3439    N        0.50304    0.31229    0.62872    1.000
    Si3440   Si       0.64178    0.31492    0.65949    1.000
    Si3441   Si       0.62258    0.30831    0.72857    1.000
    Si3442   Si       0.71537    0.30812    0.64362    1.000
    N3443    N        0.62865    0.33552    0.69605    1.000
    N3444    N        0.72260    0.34937    0.63276    1.000
    N3445    N        0.51204    0.32489    0.82494    1.000
    Si3446   Si       0.55137    0.32447    0.80347    1.000
    N3447    N        0.59218    0.32795    0.81865    1.000
    Si3448   Si       0.59576    0.33281    0.86139    1.000
    N3449    N        0.55489    0.35271    0.76931    1.000
    Si3450   Si       0.52011    0.30721    0.86704    1.000
    N3451    N        0.62375    0.33503    0.76302    1.000
    N3452    N        0.70639    0.34304    0.85211    1.000
    Si3453   Si       0.62594    0.30820    0.79770    1.000
    N3454    N        0.66996    0.30692    0.80142    1.000
    Si3455   Si       0.68629    0.30979    0.76100    1.000
    Si3456   Si       0.69712    0.30425    0.83542    1.000
    N3457    N        0.69593    0.34989    0.75046    1.000
    N3458    N        0.50875    0.35057    0.88022    1.000
    Si3459   Si       0.59144    0.32530    0.95558    1.000
    Si3460   Si       0.49736    0.33803    0.92104    1.000
    N3461    N        0.56299    0.30585    0.87467    1.000
    N3462    N        0.56887    0.32246    0.99369    1.000
    Si3463   Si       0.68802    0.36092    0.89173    1.000
    N3464    N        0.68934    0.31901    0.91599    1.000
    Si3465   Si       0.66853    0.33260    0.95257    1.000
    N3466    N        0.69476    0.32180    0.98648    1.000
    N3467    N        0.62485    0.31169    0.88451    1.000
    N3468    N        0.63247    0.31170    0.96097    1.000
    N3469    N        0.51345    0.36183    0.95333    1.000
    N3470    N        0.59086    0.38300    0.02436    1.000
    N3471    N        0.53332    0.38253    0.08845    1.000
    N3472    N        0.60988    0.37937    0.08961    1.000
    Si3473   Si       0.57012    0.36311    0.09493    1.000
    Si3474   Si       0.62571    0.38131    0.04967    1.000
    N3475    N        0.72440    0.39346    0.11632    1.000
    N3476    N        0.64691    0.41772    0.04168    1.000
    N3477    N        0.54729    0.37972    0.20020    1.000
    Si3478   Si       0.58006    0.37165    0.17190    1.000
    N3479    N        0.59670    0.40832    0.15052    1.000
    Si3480   Si       0.52497    0.41609    0.19353    1.000
    Si3481   Si       0.64956    0.36289    0.18168    1.000
    Si3482   Si       0.62731    0.39894    0.12291    1.000
    N3483    N        0.61545    0.41612    0.24145    1.000
    Si3484   Si       0.68744    0.40698    0.13381    1.000
    N3485    N        0.66065    0.37622    0.14320    1.000
    N3486    N        0.67297    0.38452    0.21298    1.000
    Si3487   Si       0.58305    0.42019    0.00072    1.000
    N3488    N        0.52020    0.35971    0.02675    1.000
    N3489    N        0.55390    0.39326    0.26457    1.000
    Si3490   Si       0.50438    0.40362    0.35522    1.000
    N3491    N        0.52681    0.37196    0.32638    1.000
    Si3492   Si       0.54361    0.40847    0.30288    1.000
    N3493    N        0.59133    0.36629    0.35877    1.000
    Si3494   Si       0.57613    0.40719    0.36890    1.000
    N3495    N        0.67363    0.39330    0.28252    1.000
    N3496    N        0.65330    0.40524    0.34658    1.000
    Si3497   Si       0.63471    0.36716    0.35539    1.000
    Si3498   Si       0.64742    0.38831    0.24842    1.000
    Si3499   Si       0.70505    0.36443    0.28751    1.000
    N3500    N        0.69004    0.38205    0.43852    1.000
    Si3501   Si       0.52207    0.38060    0.42368    1.000
    N3502    N        0.55511    0.37207    0.44896    1.000
    N3503    N        0.53818    0.39916    0.38652    1.000
    Si3504   Si       0.58221    0.40119    0.46611    1.000
    N3505    N        0.49327    0.41240    0.43535    1.000
    Si3506   Si       0.65052    0.36157    0.43491    1.000
    Si3507   Si       0.71352    0.41421    0.41770    1.000
    N3508    N        0.62315    0.39302    0.44979    1.000
    Si3509   Si       0.55329    0.39094    0.58361    1.000
    N3510    N        0.57879    0.40568    0.50861    1.000
    Si3511   Si       0.59791    0.36943    0.52490    1.000
    N3512    N        0.52469    0.41527    0.55678    1.000
    Si3513   Si       0.49382    0.38794    0.53900    1.000
    N3514    N        0.48977    0.37578    0.49820    1.000
    N3515    N        0.57475    0.36033    0.56028    1.000
    N3516    N        0.53594    0.37631    0.61917    1.000
    N3517    N        0.64503    0.38528    0.59558    1.000
    Si3518   Si       0.66733    0.37593    0.56137    1.000
    N3519    N        0.64053    0.37801    0.52601    1.000
    N3520    N        0.69337    0.40800    0.54738    1.000
    Si3521   Si       0.67842    0.39574    0.50787    1.000
    N3522    N        0.70790    0.36349    0.50117    1.000
    Si3523   Si       0.50236    0.39356    0.64241    1.000
    N3524    N        0.59667    0.39533    0.72700    1.000
    N3525    N        0.59746    0.37685    0.65364    1.000
    N3526    N        0.51866    0.41892    0.67160    1.000
    Si3527   Si       0.61662    0.40202    0.62043    1.000
    N3528    N        0.71929    0.40114    0.72686    1.000
    Si3529   Si       0.61807    0.37935    0.69130    1.000
    N3530    N        0.65732    0.39497    0.69435    1.000
    Si3531   Si       0.67742    0.38577    0.73137    1.000
    Si3532   Si       0.73239    0.38947    0.64376    1.000
    N3533    N        0.53992    0.38461    0.82307    1.000
    N3534    N        0.60283    0.40040    0.79633    1.000
    Si3535   Si       0.57915    0.39660    0.83103    1.000
    Si3536   Si       0.53267    0.38818    0.77983    1.000
    Si3537   Si       0.59691    0.37020    0.76451    1.000
    Si3538   Si       0.50386    0.37640    0.84482    1.000
    N3539    N        0.59464    0.37539    0.86604    1.000
    N3540    N        0.62105    0.41952    0.97805    1.000
    N3541    N        0.71722    0.39894    0.80033    1.000
    N3542    N        0.65844    0.41143    0.76123    1.000
    Si3543   Si       0.73126    0.36825    0.82897    1.000
    Si3544   Si       0.73213    0.37699    0.76440    1.000
    Si3545   Si       0.55114    0.38349    0.94414    1.000
    N3546    N        0.54492    0.40386    0.90756    1.000
    N3547    N        0.59125    0.36571    0.94218    1.000
    Si3548   Si       0.58329    0.40933    0.88920    1.000
    N3549    N        0.54916    0.41166    0.97658    1.000
    Si3550   Si       0.49469    0.36740    0.99378    1.000
    N3551    N        0.72205    0.37971    0.91104    1.000
    N3552    N        0.66883    0.39432    0.86856    1.000
    N3553    N        0.68465    0.38921    0.98919    1.000
    N3554    N        0.66184    0.37328    0.93287    1.000
    Si3555   Si       0.70320    0.39767    0.94777    1.000
    Si3556   Si       0.62432    0.39416    0.94182    1.000
    N3557    N        0.57515    0.45497    0.02551    1.000
    N3558    N        0.56481    0.44698    0.10050    1.000
    Si3559   Si       0.58428    0.46730    0.06595    1.000
    Si3560   Si       0.52583    0.42371    0.10618    1.000
    N3561    N        0.48449    0.42256    0.21179    1.000
    Si3562   Si       0.65526    0.44605    0.07057    1.000
    N3563    N        0.65857    0.42702    0.10843    1.000
    N3564    N        0.69142    0.46700    0.05951    1.000
    Si3565   Si       0.70797    0.47269    0.01890    1.000
    Si3566   Si       0.65826    0.42020    0.99911    1.000
    N3567    N        0.62594    0.47798    0.07304    1.000
    N3568    N        0.53244    0.42487    0.15045    1.000
    Si3569   Si       0.57246    0.44224    0.14325    1.000
    N3570    N        0.55026    0.44676    0.21357    1.000
    Si3571   Si       0.57216    0.42575    0.24359    1.000
    Si3572   Si       0.69508    0.47719    0.15962    1.000
    N3573    N        0.69307    0.43291    0.16638    1.000
    N3574    N        0.67439    0.45375    0.23344    1.000
    N3575    N        0.73212    0.42625    0.22522    1.000
    Si3576   Si       0.69292    0.42306    0.20813    1.000
    Si3577   Si       0.59588    0.45454    0.31177    1.000
    N3578    N        0.57302    0.45599    0.27432    1.000
    Si3579   Si       0.50183    0.47128    0.34053    1.000
    N3580    N        0.50530    0.43161    0.31798    1.000
    N3581    N        0.57208    0.42510    0.33071    1.000
    N3582    N        0.63594    0.44924    0.29582    1.000
    N3583    N        0.71370    0.43849    0.32488    1.000
    Si3584   Si       0.63535    0.45350    0.25307    1.000
    Si3585   Si       0.66990    0.42564    0.31184    1.000
    N3586    N        0.66242    0.47282    0.35398    1.000
    Si3587   Si       0.70567    0.47492    0.35079    1.000
    Si3588   Si       0.59040    0.46047    0.41939    1.000
    N3589    N        0.56704    0.43800    0.44867    1.000
    N3590    N        0.60402    0.43533    0.38777    1.000
    Si3591   Si       0.54187    0.47028    0.46515    1.000
    Si3592   Si       0.67771    0.47550    0.49318    1.000
    N3593    N        0.67149    0.43284    0.48520    1.000
    N3594    N        0.62570    0.46534    0.44458    1.000
    Si3595   Si       0.65087    0.42843    0.44588    1.000
    Si3596   Si       0.64618    0.43887    0.37513    1.000
    N3597    N        0.73650    0.44927    0.43202    1.000
    N3598    N        0.67263    0.43219    0.40736    1.000
    Si3599   Si       0.57186    0.45797    0.58887    1.000
    N3600    N        0.56824    0.46679    0.54562    1.000
    Si3601   Si       0.55015    0.43372    0.52504    1.000
    N3602    N        0.53195    0.46739    0.60599    1.000
    Si3603   Si       0.49886    0.44264    0.58421    1.000
    N3604    N        0.51986    0.45460    0.50159    1.000
    N3605    N        0.58505    0.41907    0.59689    1.000
    Si3606   Si       0.72165    0.44098    0.55124    1.000
    N3607    N        0.72909    0.45375    0.59295    1.000
    N3608    N        0.71021    0.47612    0.52447    1.000
    Si3609   Si       0.57691    0.43605    0.73316    1.000
    N3610    N        0.56138    0.46125    0.69944    1.000
    Si3611   Si       0.51888    0.45753    0.68904    1.000
    N3612    N        0.49290    0.45599    0.72389    1.000
    Si3613   Si       0.63463    0.47379    0.62968    1.000
    N3614    N        0.63464    0.43355    0.64404    1.000
    Si3615   Si       0.71598    0.46306    0.63235    1.000
    N3616    N        0.70608    0.42319    0.65000    1.000
    Si3617   Si       0.71726    0.46381    0.71781    1.000
    N3618    N        0.68128    0.46416    0.69266    1.000
    Si3619   Si       0.66883    0.42817    0.66955    1.000
    N3620    N        0.57606    0.43487    0.85441    1.000
    Si3621   Si       0.50452    0.44035    0.76236    1.000
    N3622    N        0.60427    0.45824    0.75928    1.000
    N3623    N        0.49721    0.46573    0.79770    1.000
    N3624    N        0.54554    0.42579    0.75962    1.000
    N3625    N        0.49630    0.42159    0.85917    1.000
    N3626    N        0.70984    0.45983    0.76108    1.000
    N3627    N        0.65937    0.45039    0.80923    1.000
    Si3628   Si       0.69080    0.43196    0.78543    1.000
    Si3629   Si       0.62771    0.43287    0.78323    1.000
    N3630    N        0.72464    0.43231    0.86819    1.000
    Si3631   Si       0.51001    0.42990    0.97099    1.000
    Si3632   Si       0.51101    0.43222    0.89740    1.000
    N3633    N        0.52496    0.47286    0.97571    1.000
    N3634    N        0.52583    0.47159    0.89703    1.000
    Si3635   Si       0.68440    0.43151    0.88535    1.000
    N3636    N        0.65650    0.46377    0.87436    1.000
    Si3637   Si       0.68444    0.47269    0.95061    1.000
    N3638    N        0.61301    0.42745    0.91287    1.000
    N3639    N        0.68908    0.43578    0.92865    1.000
    Si3640   Si       0.62738    0.46927    0.90805    1.000
    N3641    N        0.67884    0.45840    0.99150    1.000
    Si3642   Si       0.57634    0.47844    0.85394    1.000
    N3643    N        0.56464    0.50771    0.06554    1.000
    Si3644   Si       0.52069    0.51132    0.07244    1.000
    N3645    N        0.51588    0.49974    0.11472    1.000
    N3646    N        0.56317    0.52576    0.00593    1.000
    Si3647   Si       0.54645    0.48606    0.01320    1.000
    N3648    N        0.51267    0.48119    0.04051    1.000
    N3649    N        0.61301    0.53049    0.11855    1.000
    N3650    N        0.71632    0.51641    0.02036    1.000
    Si3651   Si       0.70424    0.50141    0.08517    1.000
    Si3652   Si       0.63304    0.52022    0.08009    1.000
    N3653    N        0.67464    0.53077    0.08589    1.000
    N3654    N        0.51729    0.50167    0.17808    1.000
    Si3655   Si       0.60407    0.52335    0.22434    1.000
    N3656    N        0.56278    0.50993    0.22695    1.000
    Si3657   Si       0.55288    0.48574    0.19310    1.000
    N3658    N        0.58463    0.47906    0.16292    1.000
    Si3659   Si       0.52197    0.53122    0.14482    1.000
    N3660    N        0.65550    0.49391    0.17035    1.000
    N3661    N        0.67608    0.52680    0.24194    1.000
    Si3662   Si       0.66979    0.49407    0.21312    1.000
    N3663    N        0.71634    0.48468    0.12473    1.000
    N3664    N        0.62517    0.48561    0.22605    1.000
    N3665    N        0.71329    0.49011    0.19692    1.000
    Si3666   Si       0.61790    0.50704    0.15606    1.000
    N3667    N        0.62472    0.53906    0.03879    1.000
    Si3668   Si       0.55928    0.51630    0.33287    1.000
    N3669    N        0.59703    0.49495    0.32641    1.000
    N3670    N        0.53900    0.51473    0.29510    1.000
    N3671    N        0.53446    0.49204    0.35828    1.000
    Si3672   Si       0.54748    0.48932    0.26157    1.000
    Si3673   Si       0.49738    0.51262    0.28514    1.000
    N3674    N        0.50453    0.48221    0.25538    1.000
    N3675    N        0.71874    0.50452    0.32370    1.000
    Si3676   Si       0.63641    0.50676    0.34039    1.000
    Si3677   Si       0.71784    0.53189    0.25219    1.000
    N3678    N        0.65775    0.53093    0.31067    1.000
    N3679    N        0.57235    0.49395    0.48543    1.000
    Si3680   Si       0.53810    0.50275    0.40018    1.000
    N3681    N        0.58019    0.50245    0.40996    1.000
    N3682    N        0.51853    0.47953    0.42993    1.000
    N3683    N        0.63373    0.52938    0.37741    1.000
    Si3684   Si       0.61447    0.49785    0.47173    1.000
    N3685    N        0.72679    0.49744    0.38515    1.000
    Si3686   Si       0.72758    0.49239    0.42929    1.000
    N3687    N        0.69318    0.49388    0.45780    1.000
    N3688    N        0.51866    0.52031    0.52812    1.000
    Si3689   Si       0.56122    0.50510    0.52574    1.000
    N3690    N        0.60511    0.48310    0.60115    1.000
    N3691    N        0.49582    0.53027    0.60743    1.000
    Si3692   Si       0.60644    0.52511    0.58642    1.000
    Si3693   Si       0.49212    0.48288    0.52426    1.000
    N3694    N        0.58110    0.53276    0.55220    1.000
    N3695    N        0.72113    0.52393    0.57871    1.000
    Si3696   Si       0.72305    0.51594    0.53527    1.000
    Si3697   Si       0.68056    0.52162    0.59955    1.000
    N3698    N        0.64209    0.49835    0.50481    1.000
    N3699    N        0.64794    0.52714    0.57427    1.000
    Si3700   Si       0.65140    0.53394    0.53143    1.000
    N3701    N        0.55768    0.52003    0.64691    1.000
    Si3702   Si       0.57925    0.49757    0.68000    1.000
    Si3703   Si       0.52282    0.50114    0.62963    1.000
    N3704    N        0.58131    0.52392    0.71416    1.000
    N3705    N        0.50106    0.48420    0.66237    1.000
    Si3706   Si       0.54545    0.53296    0.73623    1.000
    N3707    N        0.50514    0.53742    0.71920    1.000
    N3708    N        0.67784    0.48906    0.63014    1.000
    N3709    N        0.65230    0.51609    0.72070    1.000
    N3710    N        0.62302    0.49399    0.66696    1.000
    Si3711   Si       0.66457    0.50218    0.68128    1.000
    Si3712   Si       0.69030    0.53584    0.72627    1.000
    N3713    N        0.72387    0.50572    0.72323    1.000
    Si3714   Si       0.52119    0.50255    0.79970    1.000
    N3715    N        0.54154    0.49890    0.83901    1.000
    N3716    N        0.55289    0.50153    0.77139    1.000
    Si3717   Si       0.59473    0.49259    0.78189    1.000
    N3718    N        0.60746    0.48241    0.82240    1.000
    Si3719   Si       0.51136    0.50211    0.86857    1.000
    N3720    N        0.64999    0.49218    0.93744    1.000
    N3721    N        0.61715    0.52854    0.77482    1.000
    Si3722   Si       0.72515    0.49971    0.77193    1.000
    N3723    N        0.65870    0.52492    0.83680    1.000
    N3724    N        0.69127    0.52441    0.77568    1.000
    Si3725   Si       0.64967    0.48202    0.83696    1.000
    Si3726   Si       0.58418    0.52896    0.90968    1.000
    N3727    N        0.54975    0.52339    0.93474    1.000
    N3728    N        0.59624    0.49404    0.88930    1.000
    Si3729   Si       0.52004    0.49110    0.93644    1.000
    N3730    N        0.71511    0.50493    0.95083    1.000
    Si3731   Si       0.65387    0.53541    0.93730    1.000
    Si3732   Si       0.65530    0.53750    0.79421    1.000
    N3733    N        0.58044    0.57139    0.07454    1.000
    N3734    N        0.51041    0.55133    0.05993    1.000
    Si3735   Si       0.50292    0.57706    0.02705    1.000
    Si3736   Si       0.58219    0.53997    0.04248    1.000
    Si3737   Si       0.64663    0.56398    0.01126    1.000
    Si3738   Si       0.68444    0.57105    0.07403    1.000
    N3739    N        0.72814    0.57916    0.08261    1.000
    N3740    N        0.67802    0.58478    0.03413    1.000
    Si3741   Si       0.62989    0.57770    0.17998    1.000
    Si3742   Si       0.58912    0.56765    0.11826    1.000
    N3743    N        0.54791    0.56795    0.13950    1.000
    N3744    N        0.61043    0.54012    0.18487    1.000
    N3745    N        0.61920    0.59414    0.14115    1.000
    Si3746   Si       0.71229    0.58207    0.20581    1.000
    N3747    N        0.67115    0.57849    0.19075    1.000
    N3748    N        0.56160    0.55808    0.34453    1.000
    Si3749   Si       0.61001    0.59206    0.25169    1.000
    N3750    N        0.61054    0.54742    0.25826    1.000
    Si3751   Si       0.58249    0.59433    0.32739    1.000
    Si3752   Si       0.65153    0.54832    0.27044    1.000
    N3753    N        0.71614    0.56048    0.28485    1.000
    N3754    N        0.68905    0.57130    0.35390    1.000
    Si3755   Si       0.70067    0.54374    0.32230    1.000
    N3756    N        0.62219    0.59147    0.34581    1.000
    N3757    N        0.65110    0.59189    0.26369    1.000
    N3758    N        0.57776    0.57114    0.40639    1.000
    Si3759   Si       0.54185    0.56815    0.38492    1.000
    N3760    N        0.51339    0.53767    0.40117    1.000
    Si3761   Si       0.64965    0.56907    0.36855    1.000
    N3762    N        0.61927    0.53718    0.45338    1.000
    N3763    N        0.71734    0.59217    0.41807    1.000
    Si3764   Si       0.72271    0.59029    0.37416    1.000
    N3765    N        0.67583    0.58559    0.47490    1.000
    Si3766   Si       0.63414    0.57143    0.47517    1.000
    N3767    N        0.64724    0.58538    0.41025    1.000
    Si3768   Si       0.60728    0.53838    0.41035    1.000
    Si3769   Si       0.58405    0.57161    0.53447    1.000
    Si3770   Si       0.49850    0.57580    0.60665    1.000
    Si3771   Si       0.50927    0.56357    0.52841    1.000
    N3772    N        0.54771    0.58004    0.50919    1.000
    N3773    N        0.51192    0.58621    0.56687    1.000
    N3774    N        0.60136    0.55921    0.61446    1.000
    N3775    N        0.62354    0.56484    0.51833    1.000
    Si3776   Si       0.70248    0.58113    0.50671    1.000
    Si3777   Si       0.63952    0.58290    0.61766    1.000
    N3778    N        0.68061    0.56187    0.61755    1.000
    N3779    N        0.69212    0.54048    0.51989    1.000
    N3780    N        0.53270    0.58746    0.62938    1.000
    Si3781   Si       0.56598    0.56156    0.63862    1.000
    N3782    N        0.57808    0.58625    0.67307    1.000
    N3783    N        0.61901    0.58140    0.72639    1.000
    Si3784   Si       0.68575    0.57510    0.65860    1.000
    Si3785   Si       0.73031    0.59531    0.70766    1.000
    N3786    N        0.64622    0.59563    0.65832    1.000
    N3787    N        0.70185    0.57588    0.73475    1.000
    Si3788   Si       0.61783    0.53752    0.73334    1.000
    N3789    N        0.68834    0.53905    0.67760    1.000
    Si3790   Si       0.52454    0.57669    0.79078    1.000
    N3791    N        0.55582    0.56723    0.76115    1.000
    N3792    N        0.54378    0.58637    0.82818    1.000
    Si3793   Si       0.53736    0.57251    0.86811    1.000
    N3794    N        0.49950    0.54061    0.79439    1.000
    N3795    N        0.67071    0.55031    0.97485    1.000
    N3796    N        0.66747    0.57948    0.80303    1.000
    N3797    N        0.71525    0.57124    0.85391    1.000
    Si3798   Si       0.67303    0.56533    0.84659    1.000
    N3799    N        0.68049    0.54824    0.90423    1.000
    Si3800   Si       0.69687    0.59603    0.77316    1.000
    N3801    N        0.57831    0.56236    0.88055    1.000
    Si3802   Si       0.54314    0.54616    0.97229    1.000
    N3803    N        0.55929    0.58516    0.96494    1.000
    N3804    N        0.50771    0.54379    0.87769    1.000
    Si3805   Si       0.60085    0.58770    0.95592    1.000
    N3806    N        0.50379    0.55514    0.99106    1.000
    Si3807   Si       0.61526    0.58279    0.89428    1.000
    N3808    N        0.61955    0.59154    0.99460    1.000
    Si3809   Si       0.71094    0.53603    0.98232    1.000
    N3810    N        0.61452    0.55257    0.93133    1.000
    Si3811   Si       0.71918    0.56657    0.89635    1.000
    N3812    N        0.53901    0.62368    0.10109    1.000
    N3813    N        0.59235    0.63614    0.05114    1.000
    Si3814   Si       0.56031    0.60831    0.06418    1.000
    N3815    N        0.53835    0.60332    0.02717    1.000
    N3816    N        0.67636    0.64368    0.15749    1.000
    Si3817   Si       0.50494    0.65103    0.09224    1.000
    Si3818   Si       0.61158    0.63153    0.01181    1.000
    Si3819   Si       0.68990    0.62494    0.01822    1.000
    Si3820   Si       0.71281    0.62338    0.08963    1.000
    N3821    N        0.71583    0.63963    0.04997    1.000
    N3822    N        0.67372    0.60593    0.09956    1.000
    N3823    N        0.65202    0.64570    0.00984    1.000
    N3824    N        0.72858    0.65121    0.11778    1.000
    N3825    N        0.62300    0.65402    0.10874    1.000
    Si3826   Si       0.58411    0.63599    0.19827    1.000
    Si3827   Si       0.53051    0.60703    0.14216    1.000
    N3828    N        0.55100    0.63407    0.17048    1.000
    N3829    N        0.60526    0.60113    0.20933    1.000
    N3830    N        0.48862    0.61457    0.14653    1.000
    N3831    N        0.71900    0.61310    0.23803    1.000
    N3832    N        0.73533    0.60296    0.17498    1.000
    Si3833   Si       0.71911    0.63897    0.15683    1.000
    Si3834   Si       0.64843    0.62467    0.13046    1.000
    N3835    N        0.57826    0.63478    0.34690    1.000
    N3836    N        0.58807    0.60794    0.28573    1.000
    Si3837   Si       0.49957    0.63147    0.35060    1.000
    Si3838   Si       0.58882    0.64889    0.27367    1.000
    N3839    N        0.50129    0.65357    0.25996    1.000
    Si3840   Si       0.72188    0.60291    0.27874    1.000
    N3841    N        0.69341    0.63408    0.29334    1.000
    Si3842   Si       0.66570    0.63293    0.26165    1.000
    N3843    N        0.72167    0.63307    0.35693    1.000
    Si3844   Si       0.69029    0.65032    0.33289    1.000
    N3845    N        0.64805    0.65478    0.34924    1.000
    Si3846   Si       0.54648    0.61899    0.48782    1.000
    Si3847   Si       0.51745    0.62679    0.41798    1.000
    N3848    N        0.61232    0.64085    0.40847    1.000
    N3849    N        0.55013    0.61631    0.44295    1.000
    Si3850   Si       0.59058    0.60610    0.42805    1.000
    N3851    N        0.52044    0.60603    0.38093    1.000
    N3852    N        0.61217    0.60744    0.46732    1.000
    Si3853   Si       0.61672    0.62943    0.36596    1.000
    N3854    N        0.67462    0.64435    0.44247    1.000
    Si3855   Si       0.67688    0.60257    0.43585    1.000
    Si3856   Si       0.61667    0.64477    0.48843    1.000
    N3857    N        0.57843    0.61213    0.55378    1.000
    N3858    N        0.51482    0.63254    0.51503    1.000
    Si3859   Si       0.53587    0.62426    0.55339    1.000
    N3860    N        0.71344    0.60567    0.67056    1.000
    Si3861   Si       0.61815    0.63285    0.55922    1.000
    N3862    N        0.64559    0.61030    0.58565    1.000
    Si3863   Si       0.68801    0.62195    0.57992    1.000
    N3864    N        0.72034    0.62858    0.60778    1.000
    N3865    N        0.63904    0.64669    0.52370    1.000
    N3866    N        0.70127    0.60282    0.54397    1.000
    N3867    N        0.57089    0.63238    0.74351    1.000
    N3868    N        0.57128    0.65121    0.64072    1.000
    N3869    N        0.51952    0.63647    0.68447    1.000
    Si3870   Si       0.54805    0.61803    0.65844    1.000
    N3871    N        0.62490    0.64473    0.69636    1.000
    Si3872   Si       0.61597    0.60193    0.68738    1.000
    Si3873   Si       0.71722    0.64267    0.64885    1.000
    Si3874   Si       0.57597    0.61535    0.82479    1.000
    N3875    N        0.59418    0.63086    0.86123    1.000
    Si3876   Si       0.53781    0.64152    0.77031    1.000
    N3877    N        0.50757    0.61141    0.77186    1.000
    N3878    N        0.60550    0.60623    0.79610    1.000
    N3879    N        0.55357    0.65088    0.80826    1.000
    Si3880   Si       0.64711    0.61715    0.80072    1.000
    N3881    N        0.67364    0.63268    0.76658    1.000
    N3882    N        0.65519    0.65093    0.82631    1.000
    N3883    N        0.73572    0.60196    0.79181    1.000
    Si3884   Si       0.64130    0.64145    0.86759    1.000
    N3885    N        0.60184    0.61287    0.92001    1.000
    N3886    N        0.58387    0.64593    0.98331    1.000
    Si3887   Si       0.49628    0.63574    0.88128    1.000
    N3888    N        0.53156    0.60990    0.88759    1.000
    Si3889   Si       0.56943    0.63020    0.89808    1.000
    Si3890   Si       0.54992    0.61968    0.98901    1.000
    N3891    N        0.51035    0.63827    0.98166    1.000
    N3892    N        0.72453    0.60402    0.91774    1.000
    Si3893   Si       0.72369    0.64402    0.90354    1.000
    N3894    N        0.64597    0.59355    0.86521    1.000
    N3895    N        0.71310    0.62517    0.98128    1.000
    Si3896   Si       0.58798    0.59589    0.75671    1.000
    N3897    N        0.58179    0.69636    0.08833    1.000
    N3898    N        0.50918    0.66739    0.05263    1.000
    Si3899   Si       0.50078    0.70912    0.05581    1.000
    Si3900   Si       0.61086    0.66950    0.06944    1.000
    N3901    N        0.63464    0.69753    0.04716    1.000
    Si3902   Si       0.64986    0.68974    0.00604    1.000
    N3903    N        0.72401    0.70916    0.07198    1.000
    Si3904   Si       0.59766    0.68407    0.12811    1.000
    Si3905   Si       0.52970    0.67921    0.23721    1.000
    N3906    N        0.50270    0.67493    0.13062    1.000
    N3907    N        0.56617    0.69727    0.15455    1.000
    Si3908   Si       0.53180    0.67137    0.16195    1.000
    N3909    N        0.51505    0.69089    0.19775    1.000
    Si3910   Si       0.61158    0.70668    0.18193    1.000
    N3911    N        0.61572    0.66235    0.18219    1.000
    Si3912   Si       0.65930    0.66607    0.18966    1.000
    N3913    N        0.73532    0.66743    0.18816    1.000
    N3914    N        0.65086    0.70888    0.20102    1.000
    N3915    N        0.67770    0.65844    0.22699    1.000
    Si3916   Si       0.71946    0.65349    0.22491    1.000
    N3917    N        0.56851    0.65578    0.23543    1.000
    Si3918   Si       0.64702    0.69602    0.24712    1.000
    N3919    N        0.58064    0.68239    0.29979    1.000
    Si3920   Si       0.55991    0.67125    0.33546    1.000
    N3921    N        0.51625    0.66708    0.33100    1.000
    N3922    N        0.56839    0.70478    0.36086    1.000
    N3923    N        0.69218    0.69532    0.33567    1.000
    Si3924   Si       0.65600    0.69751    0.35925    1.000
    N3925    N        0.63146    0.65836    0.26887    1.000
    Si3926   Si       0.63939    0.66750    0.42995    1.000
    N3927    N        0.73849    0.67873    0.25450    1.000
    N3928    N        0.52196    0.66852    0.40404    1.000
    Si3929   Si       0.58019    0.69491    0.47436    1.000
    Si3930   Si       0.54781    0.70454    0.39805    1.000
    N3931    N        0.57094    0.71072    0.43511    1.000
    Si3932   Si       0.70780    0.66346    0.46090    1.000
    N3933    N        0.62329    0.68321    0.46664    1.000
    N3934    N        0.65633    0.69707    0.40385    1.000
    N3935    N        0.71268    0.70451    0.44463    1.000
    Si3936   Si       0.56864    0.67153    0.60128    1.000
    N3937    N        0.60647    0.67222    0.57657    1.000
    Si3938   Si       0.49560    0.67921    0.59029    1.000
    N3939    N        0.53298    0.66044    0.57636    1.000
    Si3940   Si       0.49080    0.66840    0.51414    1.000
    N3941    N        0.51308    0.70009    0.49626    1.000
    Si3942   Si       0.67354    0.67445    0.53083    1.000
    N3943    N        0.70656    0.66999    0.50328    1.000
    N3944    N        0.68224    0.66451    0.57193    1.000
    Si3945   Si       0.68138    0.68635    0.60938    1.000
    Si3946   Si       0.62901    0.70692    0.56994    1.000
    N3947    N        0.56777    0.71008    0.62271    1.000
    N3948    N        0.49971    0.69541    0.68559    1.000
    N3949    N        0.56686    0.68761    0.70264    1.000
    Si3950   Si       0.52638    0.67143    0.70944    1.000
    Si3951   Si       0.59586    0.66319    0.72378    1.000
    Si3952   Si       0.58189    0.69067    0.65883    1.000
    N3953    N        0.62284    0.70194    0.66630    1.000
    N3954    N        0.68078    0.68306    0.71056    1.000
    N3955    N        0.67878    0.66268    0.64479    1.000
    Si3956   Si       0.65305    0.67179    0.67751    1.000
    Si3957   Si       0.72208    0.69666    0.70471    1.000
    N3958    N        0.57386    0.65528    0.49178    1.000
    Si3959   Si       0.54067    0.68453    0.82955    1.000
    N3960    N        0.50669    0.67347    0.85623    1.000
    N3961    N        0.56857    0.70134    0.85753    1.000
    N3962    N        0.52103    0.67544    0.75014    1.000
    Si3963   Si       0.50773    0.71305    0.76708    1.000
    N3964    N        0.68302    0.69912    0.77886    1.000
    Si3965   Si       0.66424    0.69256    0.82093    1.000
    Si3966   Si       0.66610    0.67159    0.74995    1.000
    N3967    N        0.62295    0.68158    0.75094    1.000
    N3968    N        0.69294    0.70913    0.84898    1.000
    N3969    N        0.61402    0.70468    0.98502    1.000
    Si3970   Si       0.55624    0.69938    0.89926    1.000
    N3971    N        0.55230    0.66207    0.92093    1.000
    Si3972   Si       0.51731    0.67308    0.94896    1.000
    N3973    N        0.54411    0.70184    0.97153    1.000
    Si3974   Si       0.58398    0.68487    0.96173    1.000
    N3975    N        0.59161    0.71031    0.92431    1.000
    N3976    N        0.68437    0.69760    0.98145    1.000
    Si3977   Si       0.71776    0.66823    0.97783    1.000
    N3978    N        0.63451    0.68774    0.87156    1.000
    Si3979   Si       0.67423    0.69685    0.88552    1.000
    N3980    N        0.68266    0.65441    0.89190    1.000
    N3981    N        0.52652    0.71624    0.80595    1.000
    N3982    N        0.74059    0.70580    0.74691    1.000
    N3983    N        0.52332    0.73797    0.07617    1.000
    Si3984   Si       0.56331    0.73464    0.08842    1.000
    N3985    N        0.50254    0.72530    0.01474    1.000
    N3986    N        0.56961    0.75743    0.00414    1.000
    N3987    N        0.59421    0.76274    0.06816    1.000
    Si3988   Si       0.63163    0.74057    0.05544    1.000
    N3989    N        0.66555    0.74511    0.08268    1.000
    Si3990   Si       0.70651    0.74743    0.07293    1.000
    N3991    N        0.63770    0.75605    0.01456    1.000
    N3992    N        0.70926    0.76536    0.03292    1.000
    Si3993   Si       0.49515    0.73011    0.19344    1.000
    N3994    N        0.56500    0.75758    0.12450    1.000
    Si3995   Si       0.56050    0.73948    0.16321    1.000
    N3996    N        0.58992    0.74158    0.19327    1.000
    N3997    N        0.52241    0.75737    0.17677    1.000
    Si3998   Si       0.61344    0.76081    0.22583    1.000
    N3999    N        0.68619    0.74190    0.15134    1.000
    Si4000   Si       0.67631    0.74382    0.19470    1.000
    Si4001   Si       0.65323    0.74304    0.12288    1.000
    N4002    N        0.71195    0.74433    0.21962    1.000
    Si4003   Si       0.72564    0.75535    0.14058    1.000
    N4004    N        0.62322    0.71744    0.14018    1.000
    N4005    N        0.58100    0.75335    0.30212    1.000
    Si4006   Si       0.58914    0.73908    0.34299    1.000
    Si4007   Si       0.51296    0.74851    0.26737    1.000
    N4008    N        0.49691    0.73568    0.30643    1.000
    Si4009   Si       0.58148    0.71905    0.27597    1.000
    N4010    N        0.54012    0.71592    0.25816    1.000
    N4011    N        0.61387    0.72621    0.25138    1.000
    N4012    N        0.63225    0.73155    0.35026    1.000
    Si4013   Si       0.69207    0.72542    0.30646    1.000
    N4014    N        0.73096    0.74095    0.28727    1.000
    Si4015   Si       0.66175    0.76429    0.35755    1.000
    Si4016   Si       0.72070    0.71790    0.25280    1.000
    N4017    N        0.68668    0.76641    0.32199    1.000
    N4018    N        0.53492    0.76643    0.46394    1.000
    Si4019   Si       0.56222    0.75350    0.43242    1.000
    N4020    N        0.52872    0.74364    0.40298    1.000
    Si4021   Si       0.68910    0.72176    0.41498    1.000
    N4022    N        0.69321    0.74924    0.38419    1.000
    N4023    N        0.67894    0.71350    0.26812    1.000
    Si4024   Si       0.53225    0.73738    0.49677    1.000
    Si4025   Si       0.59423    0.75585    0.52508    1.000
    Si4026   Si       0.58180    0.74845    0.60193    1.000
    N4027    N        0.60200    0.74087    0.56489    1.000
    N4028    N        0.50820    0.76058    0.52655    1.000
    N4029    N        0.57372    0.72583    0.50349    1.000
    N4030    N        0.49316    0.71829    0.60858    1.000
    Si4031   Si       0.51380    0.75612    0.61915    1.000
    N4032    N        0.54498    0.76754    0.59058    1.000
    Si4033   Si       0.70295    0.74293    0.64768    1.000
    Si4034   Si       0.72847    0.77379    0.71111    1.000
    N4035    N        0.62977    0.76318    0.50313    1.000
    Si4036   Si       0.66432    0.75952    0.53066    1.000
    N4037    N        0.73440    0.75446    0.56532    1.000
    N4038    N        0.65816    0.71402    0.53735    1.000
    N4039    N        0.65113    0.71746    0.60734    1.000
    Si4040   Si       0.49038    0.73914    0.69362    1.000
    N4041    N        0.51855    0.73564    0.72955    1.000
    Si4042   Si       0.55913    0.72767    0.72177    1.000
    N4043    N        0.51712    0.76042    0.66313    1.000
    N4044    N        0.60742    0.76537    0.63151    1.000
    N4045    N        0.57427    0.76518    0.70693    1.000
    N4046    N        0.71337    0.71322    0.61887    1.000
    Si4047   Si       0.63692    0.73535    0.64560    1.000
    N4048    N        0.72842    0.73623    0.68355    1.000
    N4049    N        0.69893    0.76183    0.73983    1.000
    N4050    N        0.66699    0.75613    0.66820    1.000
    Si4051   Si       0.51686    0.75530    0.82357    1.000
    N4052    N        0.57587    0.73227    0.76180    1.000
    Si4053   Si       0.68716    0.73307    0.95626    1.000
    Si4054   Si       0.60934    0.71654    0.85381    1.000
    Si4055   Si       0.61648    0.71930    0.77314    1.000
    N4056    N        0.71351    0.75526    0.80440    1.000
    Si4057   Si       0.70919    0.73094    0.76902    1.000
    N4058    N        0.63049    0.75769    0.75340    1.000
    Si4059   Si       0.72892    0.73230    0.83862    1.000
    N4060    N        0.61293    0.75420    0.87695    1.000
    Si4061   Si       0.49650    0.74509    0.92901    1.000
    N4062    N        0.51181    0.76576    0.96423    1.000
    N4063    N        0.51852    0.72377    0.89905    1.000
    Si4064   Si       0.53515    0.73925    0.98927    1.000
    Si4065   Si       0.60700    0.74796    0.98409    1.000
    N4066    N        0.73137    0.73681    0.95120    1.000
    N4067    N        0.61718    0.76710    0.94586    1.000
    N4068    N        0.66607    0.72332    0.92054    1.000
    Si4069   Si       0.62421    0.73656    0.91573    1.000
    N4070    N        0.62818    0.71856    0.81264    1.000
    N4071    N        0.53311    0.80030    0.05304    1.000
    Si4072   Si       0.59570    0.78446    0.10769    1.000
    Si4073   Si       0.57091    0.78345    0.03825    1.000
    N4074    N        0.57802    0.82252    0.10623    1.000
    Si4075   Si       0.50709    0.77746    0.07807    1.000
    N4076    N        0.59052    0.82147    0.02311    1.000
    N4077    N        0.50240    0.79459    0.11748    1.000
    N4078    N        0.52790    0.82838    0.99348    1.000
    Si4079   Si       0.67325    0.78015    0.01132    1.000
    N4080    N        0.66109    0.81842    0.02656    1.000
    N4081    N        0.72594    0.77246    0.10054    1.000
    Si4082   Si       0.51349    0.79441    0.15991    1.000
    N4083    N        0.60110    0.82755    0.17314    1.000
    N4084    N        0.59786    0.79678    0.24263    1.000
    N4085    N        0.70130    0.81275    0.23335    1.000
    Si4086   Si       0.72950    0.78389    0.21122    1.000
    Si4087   Si       0.63656    0.80154    0.16595    1.000
    N4088    N        0.63380    0.78311    0.12758    1.000
    Si4089   Si       0.66622    0.81765    0.21160    1.000
    N4090    N        0.64735    0.77863    0.20099    1.000
    N4091    N        0.72948    0.78850    0.16765    1.000
    Si4092   Si       0.59764    0.83383    0.21693    1.000
    Si4093   Si       0.57340    0.79204    0.28025    1.000
    N4094    N        0.53261    0.78726    0.26642    1.000
    N4095    N        0.50431    0.79278    0.34882    1.000
    Si4096   Si       0.50430    0.81904    0.26715    1.000
    N4097    N        0.57089    0.82752    0.30298    1.000
    N4098    N        0.57356    0.77281    0.36639    1.000
    Si4099   Si       0.72628    0.77838    0.38092    1.000
    N4100    N        0.73091    0.81923    0.29325    1.000
    Si4101   Si       0.72647    0.77987    0.30783    1.000
    N4102    N        0.52849    0.81017    0.41145    1.000
    Si4103   Si       0.52248    0.80728    0.45402    1.000
    Si4104   Si       0.60130    0.79445    0.39259    1.000
    Si4105   Si       0.53092    0.77929    0.37926    1.000
    N4106    N        0.61207    0.82454    0.48112    1.000
    N4107    N        0.59818    0.77820    0.43356    1.000
    N4108    N        0.66780    0.79177    0.45228    1.000
    Si4109   Si       0.70588    0.79475    0.47167    1.000
    Si4110   Si       0.66854    0.81191    0.41260    1.000
    Si4111   Si       0.62725    0.78669    0.46688    1.000
    N4112    N        0.70899    0.81388    0.40001    1.000
    N4113    N        0.64267    0.79332    0.38312    1.000
    N4114    N        0.56861    0.79119    0.52749    1.000
    Si4115   Si       0.53151    0.78544    0.55271    1.000
    N4116    N        0.50840    0.82193    0.55999    1.000
    Si4117   Si       0.57457    0.82616    0.50312    1.000
    N4118    N        0.60618    0.82454    0.59823    1.000
    N4119    N        0.66678    0.78770    0.56476    1.000
    Si4120   Si       0.70882    0.78395    0.58014    1.000
    Si4121   Si       0.64539    0.82358    0.57656    1.000
    N4122    N        0.73322    0.82073    0.56942    1.000
    N4123    N        0.52182    0.81866    0.69502    1.000
    N4124    N        0.57481    0.81528    0.66164    1.000
    Si4125   Si       0.54759    0.78647    0.68007    1.000
    Si4126   Si       0.60968    0.80777    0.63754    1.000
    N4127    N        0.65673    0.81263    0.72309    1.000
    N4128    N        0.71155    0.80355    0.68569    1.000
    N4129    N        0.64768    0.81881    0.65446    1.000
    Si4130   Si       0.66850    0.79643    0.68472    1.000
    N4131    N        0.71431    0.77843    0.62383    1.000
    Si4132   Si       0.73188    0.80570    0.64826    1.000
    N4133    N        0.70130    0.77499    0.51161    1.000
    N4134    N        0.57334    0.80749    0.76599    1.000
    Si4135   Si       0.54092    0.80338    0.79598    1.000
    Si4136   Si       0.58941    0.78769    0.85805    1.000
    N4137    N        0.55267    0.77981    0.83276    1.000
    N4138    N        0.50481    0.77802    0.78652    1.000
    N4139    N        0.60635    0.81988    0.83208    1.000
    Si4140   Si       0.59088    0.77295    0.74714    1.000
    Si4141   Si       0.70858    0.79874    0.80870    1.000
    N4142    N        0.66877    0.80454    0.79199    1.000
    N4143    N        0.70869    0.81638    0.84921    1.000
    Si4144   Si       0.66371    0.78411    0.75382    1.000
    N4145    N        0.58308    0.81587    0.89014    1.000
    Si4146   Si       0.50165    0.80639    0.96530    1.000
    N4147    N        0.51327    0.82178    0.92614    1.000
    Si4148   Si       0.61169    0.80724    0.92656    1.000
    N4149    N        0.58185    0.82491    0.95154    1.000
    Si4150   Si       0.68772    0.81138    0.94453    1.000
    N4151    N        0.72135    0.80208    0.91941    1.000
    N4152    N        0.65146    0.82564    0.92590    1.000
    Si4153   Si       0.73633    0.80055    0.87806    1.000
    N4154    N        0.68452    0.77594    0.96942    1.000
    N4155    N        0.73950    0.82107    0.78585    1.000
    Si4156   Si       0.57559    0.86081    0.08502    1.000
    N4157    N        0.54701    0.87057    0.05351    1.000
    Si4158   Si       0.51954    0.83755    0.03594    1.000
    N4159    N        0.61725    0.86512    0.06929    1.000
    Si4160   Si       0.62703    0.84431    0.03111    1.000
    N4161    N        0.63470    0.87899    0.00633    1.000
    Si4162   Si       0.71561    0.88388    0.10849    1.000
    N4163    N        0.49935    0.84542    0.23081    1.000
    N4164    N        0.56845    0.88108    0.12609    1.000
    Si4165   Si       0.53003    0.85976    0.20234    1.000
    Si4166   Si       0.57024    0.84176    0.14631    1.000
    N4167    N        0.56744    0.86134    0.22740    1.000
    Si4168   Si       0.71553    0.83057    0.15967    1.000
    N4169    N        0.63939    0.84679    0.22507    1.000
    N4170    N        0.72555    0.84076    0.11895    1.000
    N4171    N        0.71885    0.88867    0.06497    1.000
    N4172    N        0.53607    0.83050    0.17131    1.000
    N4173    N        0.67280    0.82776    0.17016    1.000
    Si4174   Si       0.54270    0.85528    0.31770    1.000
    N4175    N        0.52659    0.85973    0.35915    1.000
    N4176    N        0.50282    0.84666    0.30240    1.000
    N4177    N        0.73375    0.87504    0.25157    1.000
    N4178    N        0.67569    0.85806    0.28201    1.000
    N4179    N        0.64798    0.86059    0.35110    1.000
    N4180    N        0.71495    0.86957    0.33817    1.000
    Si4181   Si       0.67510    0.87527    0.32265    1.000
    Si4182   Si       0.71002    0.84081    0.26462    1.000
    Si4183   Si       0.64889    0.87626    0.25444    1.000
    N4184    N        0.53941    0.88210    0.41633    1.000
    Si4185   Si       0.54495    0.84480    0.39513    1.000
    Si4186   Si       0.55637    0.87982    0.45687    1.000
    N4187    N        0.54839    0.83770    0.47025    1.000
    N4188    N        0.58717    0.83644    0.38863    1.000
    N4189    N        0.59864    0.88987    0.45471    1.000
    Si4190   Si       0.62284    0.86185    0.38690    1.000
    N4191    N        0.72285    0.83500    0.46826    1.000
    Si4192   Si       0.62889    0.85786    0.46140    1.000
    N4193    N        0.64621    0.84847    0.42098    1.000
    N4194    N        0.65489    0.88112    0.48535    1.000
    Si4195   Si       0.73474    0.84005    0.42481    1.000
    Si4196   Si       0.49336    0.83445    0.34523    1.000
    Si4197   Si       0.59070    0.86205    0.57131    1.000
    N4198    N        0.56680    0.85858    0.53015    1.000
    Si4199   Si       0.52882    0.85935    0.54870    1.000
    N4200    N        0.55020    0.86838    0.58806    1.000
    N4201    N        0.49598    0.88845    0.53725    1.000
    N4202    N        0.48978    0.85060    0.62160    1.000
    Si4203   Si       0.65499    0.87940    0.52733    1.000
    N4204    N        0.63060    0.85233    0.54838    1.000
    Si4205   Si       0.70772    0.85536    0.57520    1.000
    N4206    N        0.69515    0.86435    0.53402    1.000
    N4207    N        0.67368    0.84908    0.60032    1.000
    Si4208   Si       0.72389    0.86431    0.50115    1.000
    Si4209   Si       0.52346    0.87813    0.62055    1.000
    N4210    N        0.58626    0.85650    0.71426    1.000
    Si4211   Si       0.55497    0.84842    0.68256    1.000
    N4212    N        0.55277    0.88007    0.65218    1.000
    N4213    N        0.69426    0.88242    0.65842    1.000
    Si4214   Si       0.61570    0.88458    0.70082    1.000
    N4215    N        0.65746    0.88059    0.71298    1.000
    Si4216   Si       0.65939    0.85950    0.64026    1.000
    N4217    N        0.62286    0.88061    0.65715    1.000
    Si4218   Si       0.73037    0.88278    0.63491    1.000
    N4219    N        0.52886    0.84215    0.80969    1.000
    Si4220   Si       0.58593    0.84875    0.75646    1.000
    N4221    N        0.56565    0.87807    0.84838    1.000
    Si4222   Si       0.54538    0.88375    0.81012    1.000
    Si4223   Si       0.59464    0.84908    0.86245    1.000
    N4224    N        0.49946    0.86967    0.86874    1.000
    N4225    N        0.56713    0.88868    0.77242    1.000
    N4226    N        0.73001    0.87448    0.82477    1.000
    N4227    N        0.62585    0.85070    0.76940    1.000
    Si4228   Si       0.69929    0.85810    0.85127    1.000
    N4229    N        0.66350    0.86630    0.82853    1.000
    N4230    N        0.68958    0.86929    0.76856    1.000
    Si4231   Si       0.73144    0.86275    0.78241    1.000
    Si4232   Si       0.64007    0.83381    0.80861    1.000
    Si4233   Si       0.65996    0.85030    0.74373    1.000
    Si4234   Si       0.55368    0.83354    0.92000    1.000
    N4235    N        0.56682    0.88211    0.98669    1.000
    N4236    N        0.54844    0.87666    0.91637    1.000
    Si4237   Si       0.56906    0.83951    0.98966    1.000
    Si4238   Si       0.65308    0.86874    0.91198    1.000
    N4239    N        0.69879    0.84941    0.96308    1.000
    Si4240   Si       0.67223    0.87962    0.98087    1.000
    N4241    N        0.68882    0.87622    0.89014    1.000
    N4242    N        0.61939    0.87292    0.88671    1.000
    Si4243   Si       0.49172    0.84644    0.82987    1.000
    N4244    N        0.58649    0.93273    0.02935    1.000
    N4245    N        0.51689    0.91901    0.01494    1.000
    Si4246   Si       0.55612    0.90189    0.02412    1.000
    N4247    N        0.49078    0.91701    0.08268    1.000
    N4248    N        0.55075    0.94728    0.10866    1.000
    N4249    N        0.69865    0.91141    0.00008    1.000
    Si4250   Si       0.63762    0.89967    0.08712    1.000
    Si4251   Si       0.69422    0.91633    0.04348    1.000
    N4252    N        0.65247    0.92304    0.05173    1.000
    Si4253   Si       0.62573    0.92086    0.01683    1.000
    N4254    N        0.67502    0.89840    0.11570    1.000
    N4255    N        0.61776    0.92689    0.11511    1.000
    N4256    N        0.67084    0.90398    0.23089    1.000
    Si4257   Si       0.57738    0.92237    0.13120    1.000
    Si4258   Si       0.54974    0.93405    0.20057    1.000
    N4259    N        0.58327    0.93857    0.17231    1.000
    N4260    N        0.52418    0.90020    0.18793    1.000
    N4261    N        0.56535    0.93163    0.24154    1.000
    Si4262   Si       0.73612    0.89026    0.21004    1.000
    Si4263   Si       0.68127    0.93805    0.20702    1.000
    Si4264   Si       0.65861    0.93721    0.12941    1.000
    N4265    N        0.72059    0.92665    0.19145    1.000
    N4266    N        0.65528    0.94429    0.17189    1.000
    Si4267   Si       0.50635    0.94762    0.10769    1.000
    Si4268   Si       0.55606    0.92735    0.32072    1.000
    N4269    N        0.59834    0.93105    0.33023    1.000
    N4270    N        0.53651    0.93094    0.35900    1.000
    N4271    N        0.55419    0.89181    0.29755    1.000
    Si4272   Si       0.57157    0.89158    0.25728    1.000
    Si4273   Si       0.61148    0.94251    0.36991    1.000
    N4274    N        0.61415    0.89437    0.26914    1.000
    Si4275   Si       0.62626    0.92641    0.29744    1.000
    N4276    N        0.66627    0.91717    0.30924    1.000
    N4277    N        0.70797    0.92858    0.36777    1.000
    Si4278   Si       0.69521    0.94276    0.32760    1.000
    Si4279   Si       0.51767    0.89768    0.38034    1.000
    N4280    N        0.53370    0.90509    0.48216    1.000
    N4281    N        0.61368    0.90494    0.39280    1.000
    Si4282   Si       0.73421    0.89313    0.37073    1.000
    N4283    N        0.72705    0.90205    0.47689    1.000
    N4284    N        0.68206    0.94599    0.48228    1.000
    Si4285   Si       0.68243    0.90644    0.46547    1.000
    Si4286   Si       0.68270    0.94434    0.39787    1.000
    N4287    N        0.66690    0.91744    0.42775    1.000
    Si4288   Si       0.62321    0.91800    0.43161    1.000
    Si4289   Si       0.51291    0.92579    0.51293    1.000
    N4290    N        0.50319    0.91589    0.61335    1.000
    N4291    N        0.53276    0.94450    0.54571    1.000
    N4292    N        0.60789    0.89675    0.59299    1.000
    Si4293   Si       0.51519    0.94727    0.58673    1.000
    Si4294   Si       0.73003    0.93950    0.50111    1.000
    Si4295   Si       0.63891    0.92849    0.58533    1.000
    N4296    N        0.64935    0.91933    0.54452    1.000
    Si4297   Si       0.71408    0.93258    0.58264    1.000
    N4298    N        0.71205    0.94010    0.54094    1.000
    N4299    N        0.67671    0.94088    0.60511    1.000
    N4300    N        0.72174    0.89140    0.59324    1.000
    Si4301   Si       0.59127    0.89783    0.63525    1.000
    N4302    N        0.60577    0.92334    0.72033    1.000
    N4303    N        0.59465    0.93891    0.64749    1.000
    N4304    N        0.50407    0.94253    0.67978    1.000
    Si4305   Si       0.68355    0.90658    0.69138    1.000
    N4306    N        0.53120    0.94803    0.73725    1.000
    Si4307   Si       0.61604    0.94905    0.68365    1.000
    N4308    N        0.71179    0.92920    0.71476    1.000
    N4309    N        0.66038    0.94367    0.68191    1.000
    N4310    N        0.50158    0.89254    0.74469    1.000
    N4311    N        0.51885    0.91783    0.80930    1.000
    Si4312   Si       0.53049    0.91676    0.76657    1.000
    Si4313   Si       0.59812    0.91834    0.76378    1.000
    Si4314   Si       0.66957    0.89546    0.79582    1.000
    N4315    N        0.63333    0.91733    0.78812    1.000
    N4316    N        0.69271    0.93295    0.80153    1.000
    N4317    N        0.52929    0.93334    0.87981    1.000
    Si4318   Si       0.49859    0.94009    0.91099    1.000
    N4319    N        0.58971    0.93073    0.94542    1.000
    N4320    N        0.52424    0.93280    0.94617    1.000
    Si4321   Si       0.55737    0.90283    0.94964    1.000
    Si4322   Si       0.53590    0.89124    0.87684    1.000
    Si4323   Si       0.71630    0.90421    0.90492    1.000
    N4324    N        0.71621    0.94677    0.89265    1.000
    N4325    N        0.65389    0.89845    0.94475    1.000
    Si4326   Si       0.63251    0.93750    0.94754    1.000
    Si4327   Si       0.51044    0.94790    0.98460    1.000
    Si4328   Si       0.57645    0.97510    0.02000    1.000
    Si4329   Si       0.57334    0.97934    0.08931    1.000
    N4330    N        0.55052    0.98642    0.05312    1.000
    N4331    N        0.49836    0.99024    0.09633    1.000
    Si4332   Si       0.72334    0.99068    0.23524    1.000
    Si4333   Si       0.61684    0.96501    0.17771    1.000
    N4334    N        0.61307    0.98350    0.07157    1.000
    Si4335   Si       0.72178    0.97301    0.09409    1.000
    N4336    N        0.70143    0.95912    0.05526    1.000
    N4337    N        0.66982    0.97207    0.10544    1.000
    Si4338   Si       0.65630    0.96859    0.06455    1.000
    Si4339   Si       0.70836    0.99985    0.03658    1.000
    Si4340   Si       0.64184    0.99473    0.99789    1.000
    N4341    N        0.66241    0.00296    0.03705    1.000
    N4342    N        0.51581    0.96149    0.20059    1.000
    Si4343   Si       0.51467    0.00281    0.19181    1.000
    N4344    N        0.61581    0.98699    0.21569    1.000
    N4345    N        0.68171    0.97381    0.23040    1.000
    N4346    N        0.72960    0.97570    0.13809    1.000
    N4347    N        0.61927    0.99931    0.15090    1.000
    Si4348   Si       0.65448    0.00839    0.12545    1.000
    Si4349   Si       0.64344    0.98615    0.24684    1.000
    Si4350   Si       0.51680    0.98842    0.31450    1.000
    N4351    N        0.54649    0.96276    0.29809    1.000
    Si4352   Si       0.57510    0.96691    0.26544    1.000
    N4353    N        0.53193    0.00028    0.35281    1.000
    N4354    N        0.61761    0.96470    0.27727    1.000
    N4355    N        0.68117    0.98482    0.31847    1.000
    Si4356   Si       0.72079    0.99462    0.30515    1.000
    N4357    N        0.73267    0.95251    0.30640    1.000
    N4358    N        0.55825    0.00773    0.25326    1.000
    N4359    N        0.52966    0.97422    0.48809    1.000
    Si4360   Si       0.50954    0.99147    0.45300    1.000
    Si4361   Si       0.59928    0.98814    0.42510    1.000
    N4362    N        0.58249    0.97002    0.38896    1.000
    Si4363   Si       0.53816    0.96760    0.38192    1.000
    N4364    N        0.51445    0.96806    0.41832    1.000
    N4365    N        0.61467    0.95614    0.44780    1.000
    N4366    N        0.70923    0.97022    0.42100    1.000
    Si4367   Si       0.65168    0.00333    0.37415    1.000
    N4368    N        0.65033    0.96131    0.37495    1.000
    N4369    N        0.73350    0.98157    0.48921    1.000
    Si4370   Si       0.69897    0.98001    0.46242    1.000
    Si4371   Si       0.54862    0.98178    0.52720    1.000
    N4372    N        0.54425    0.96822    0.60822    1.000
    N4373    N        0.58896    0.99698    0.52498    1.000
    Si4374   Si       0.58596    0.96701    0.61616    1.000
    N4375    N        0.61263    0.96279    0.58225    1.000
    Si4376   Si       0.62165    0.99315    0.55327    1.000
    N4377    N        0.65478    0.98938    0.52500    1.000
    N4378    N        0.69799    0.00016    0.58713    1.000
    Si4379   Si       0.67222    0.94915    0.52478    1.000
    N4380    N        0.54679    0.98986    0.67108    1.000
    Si4381   Si       0.52179    0.97512    0.70195    1.000
    N4382    N        0.60706    0.99041    0.69239    1.000
    Si4383   Si       0.54454    0.00522    0.63022    1.000
    Si4384   Si       0.68052    0.98087    0.62410    1.000
    N4385    N        0.67169    0.00075    0.71238    1.000
    N4386    N        0.71245    0.98033    0.65622    1.000
    Si4387   Si       0.69408    0.96886    0.69404    1.000
    N4388    N        0.65218    0.00762    0.64234    1.000
    Si4389   Si       0.54491    0.97972    0.76750    1.000
    N4390    N        0.51998    0.98977    0.85001    1.000
    N4391    N        0.59197    0.96883    0.85221    1.000
    N4392    N        0.50645    0.97799    0.79070    1.000
    Si4393   Si       0.59145    0.98267    0.81086    1.000
    N4394    N        0.57485    0.95215    0.78320    1.000
    Si4395   Si       0.50393    0.95531    0.82790    1.000
    Si4396   Si       0.55266    0.97075    0.87246    1.000
    N4397    N        0.63259    0.98937    0.79886    1.000
    N4398    N        0.72029    0.98977    0.83190    1.000
    N4399    N        0.65993    0.96249    0.85206    1.000
    Si4400   Si       0.65282    0.95177    0.81006    1.000
    Si4401   Si       0.69736    0.97775    0.86756    1.000
    Si4402   Si       0.73011    0.95191    0.81087    1.000
    Si4403   Si       0.56094    0.96336    0.94710    1.000
    N4404    N        0.56375    0.98603    0.91131    1.000
    N4405    N        0.54698    0.97878    0.98487    1.000
    N4406    N        0.69175    0.00825    0.89914    1.000
    N4407    N        0.63850    0.96657    0.91814    1.000
    N4408    N        0.63646    0.95318    0.98881    1.000
    Si4409   Si       0.62574    0.97342    0.87612    1.000
    Si4410   Si       0.65316    0.00805    0.91991    1.000
    N4411    N        0.85242    0.03161    0.06506    1.000
    N4412    N        0.94933    0.04893    0.13067    1.000
    Si4413   Si       0.88045    0.03206    0.03220    1.000
    N4414    N        0.92140    0.04360    0.04029    1.000
    Si4415   Si       0.95372    0.01454    0.04188    1.000
    N4416    N        0.86838    0.06387    0.00667    1.000
    N4417    N        0.75562    0.03864    0.13375    1.000
    Si4418   Si       0.79811    0.03849    0.13733    1.000
    N4419    N        0.80998    0.04765    0.17893    1.000
    Si4420   Si       0.85104    0.04704    0.19392    1.000
    N4421    N        0.88323    0.06047    0.16699    1.000
    N4422    N        0.86385    0.01342    0.21653    1.000
    Si4423   Si       0.90343    0.04492    0.13311    1.000
    Si4424   Si       0.97524    0.04311    0.21150    1.000
    N4425    N        0.82129    0.02480    0.34155    1.000
    Si4426   Si       0.83206    0.04549    0.30360    1.000
    N4427    N        0.79680    0.05085    0.28379    1.000
    Si4428   Si       0.77780    0.01400    0.35223    1.000
    N4429    N        0.85835    0.01521    0.28679    1.000
    Si4430   Si       0.93967    0.03525    0.44737    1.000
    N4431    N        0.90168    0.05460    0.43721    1.000
    N4432    N        0.98118    0.02823    0.34603    1.000
    Si4433   Si       0.88157    0.03093    0.25348    1.000
    N4434    N        0.91330    0.04694    0.35862    1.000
    N4435    N        0.96719    0.04223    0.25444    1.000
    Si4436   Si       0.95311    0.06210    0.34550    1.000
    N4437    N        0.82401    0.03216    0.43330    1.000
    N4438    N        0.77993    0.04883    0.38116    1.000
    Si4439   Si       0.82748    0.02758    0.47759    1.000
    N4440    N        0.75285    0.02062    0.43695    1.000
    Si4441   Si       0.78464    0.04445    0.42331    1.000
    N4442    N        0.85692    0.06672    0.38709    1.000
    Si4443   Si       0.86630    0.03536    0.42031    1.000
    N4444    N        0.96932    0.04338    0.48093    1.000
    N4445    N        0.96462    0.03702    0.41170    1.000
    N4446    N        0.86725    0.00804    0.47006    1.000
    Si4447   Si       0.90481    0.00530    0.37022    1.000
    Si4448   Si       0.97642    0.00730    0.38311    1.000
    N4449    N        0.84420    0.02838    0.52788    1.000
    Si4450   Si       0.80922    0.01606    0.55328    1.000
    N4451    N        0.79682    0.06063    0.55592    1.000
    N4452    N        0.82388    0.01491    0.59843    1.000
    N4453    N        0.75479    0.02147    0.61756    1.000
    Si4454   Si       0.84950    0.04775    0.61510    1.000
    Si4455   Si       0.75773    0.01258    0.50726    1.000
    Si4456   Si       0.95462    0.03295    0.52185    1.000
    N4457    N        0.92832    0.03414    0.59166    1.000
    N4458    N        0.91286    0.04012    0.52751    1.000
    Si4459   Si       0.97030    0.03225    0.59123    1.000
    N4460    N        0.98209    0.04740    0.55165    1.000
    Si4461   Si       0.90716    0.06035    0.56549    1.000
    Si4462   Si       0.88170    0.01288    0.51215    1.000
    N4463    N        0.98880    0.05988    0.61968    1.000
    Si4464   Si       0.76517    0.02724    0.73526    1.000
    Si4465   Si       0.79532    0.02420    0.63268    1.000
    N4466    N        0.83895    0.05398    0.70603    1.000
    N4467    N        0.81557    0.06338    0.63785    1.000
    Si4468   Si       0.83134    0.02993    0.74306    1.000
    Si4469   Si       0.74152    0.01100    0.66872    1.000
    Si4470   Si       0.87814    0.05213    0.68726    1.000
    N4471    N        0.87831    0.03721    0.64561    1.000
    N4472    N        0.94659    0.01396    0.65413    1.000
    N4473    N        0.90802    0.02732    0.71190    1.000
    Si4474   Si       0.98446    0.04299    0.65994    1.000
    Si4475   Si       0.90944    0.01457    0.62613    1.000
    N4476    N        0.74060    0.04931    0.49907    1.000
    Si4477   Si       0.82528    0.03494    0.81448    1.000
    N4478    N        0.79127    0.04986    0.83426    1.000
    N4479    N        0.82384    0.05806    0.77567    1.000
    N4480    N        0.75830    0.02152    0.77678    1.000
    N4481    N        0.86661    0.04148    0.82621    1.000
    Si4482   Si       0.90152    0.02193    0.75484    1.000
    Si4483   Si       0.90060    0.03745    0.85290    1.000
    N4484    N        0.90439    0.06370    0.76883    1.000
    Si4485   Si       0.79117    0.04344    0.87825    1.000
    N4486    N        0.77708    0.04398    0.96679    1.000
    N4487    N        0.84339    0.03689    0.94447    1.000
    N4488    N        0.75121    0.04163    0.89474    1.000
    Si4489   Si       0.85636    0.01331    0.91032    1.000
    N4490    N        0.81908    0.01164    0.88610    1.000
    Si4491   Si       0.87781    0.05262    0.96548    1.000
    N4492    N        0.96428    0.00952    0.90662    1.000
    Si4493   Si       0.92707    0.02996    0.92029    1.000
    N4494    N        0.90881    0.02397    0.96108    1.000
    N4495    N        0.89304    0.02901    0.89515    1.000
    N4496    N        0.86321    0.00340    0.75509    1.000
    N4497    N        0.83627    0.09955    0.05865    1.000
    N4498    N        0.76413    0.07804    0.07414    1.000
    Si4499   Si       0.79659    0.10705    0.07490    1.000
    Si4500   Si       0.74284    0.10323    0.04544    1.000
    Si4501   Si       0.84972    0.06853    0.08632    1.000
    Si4502   Si       0.86276    0.10228    0.02534    1.000
    N4503    N        0.90392    0.11354    0.04237    1.000
    N4504    N        0.96670    0.09387    0.01015    1.000
    N4505    N        0.95207    0.10270    0.07916    1.000
    Si4506   Si       0.93562    0.08586    0.03938    1.000
    Si4507   Si       0.91780    0.10754    0.10220    1.000
    N4508    N        0.89079    0.07302    0.10272    1.000
    N4509    N        0.82030    0.07126    0.11776    1.000
    N4510    N        0.84176    0.08012    0.22265    1.000
    Si4511   Si       0.80169    0.08216    0.20498    1.000
    N4512    N        0.79833    0.11565    0.17712    1.000
    Si4513   Si       0.82049    0.10950    0.14106    1.000
    N4514    N        0.76643    0.07765    0.22937    1.000
    N4515    N        0.89340    0.12344    0.20677    1.000
    Si4516   Si       0.89173    0.10308    0.16857    1.000
    N4517    N        0.92865    0.10818    0.14631    1.000
    Si4518   Si       0.87410    0.10329    0.24005    1.000
    Si4519   Si       0.96514    0.08532    0.14975    1.000
    N4520    N        0.97254    0.08286    0.19161    1.000
    Si4521   Si       0.99017    0.11005    0.22044    1.000
    Si4522   Si       0.77315    0.08449    0.27286    1.000
    N4523    N        0.84729    0.07964    0.32452    1.000
    N4524    N        0.79737    0.10355    0.36077    1.000
    Si4525   Si       0.83513    0.11818    0.30729    1.000
    N4526    N        0.79664    0.12023    0.28523    1.000
    N4527    N        0.90570    0.11696    0.34850    1.000
    N4528    N        0.94750    0.08352    0.30935    1.000
    Si4529   Si       0.88332    0.08048    0.35350    1.000
    Si4530   Si       0.94165    0.07346    0.26857    1.000
    N4531    N        0.96094    0.11141    0.25101    1.000
    N4532    N        0.90031    0.06988    0.25601    1.000
    Si4533   Si       0.97400    0.07899    0.41520    1.000
    Si4534   Si       0.74170    0.11619    0.44361    1.000
    Si4535   Si       0.76221    0.09167    0.38473    1.000
    N4536    N        0.77733    0.08458    0.43216    1.000
    Si4537   Si       0.80174    0.10191    0.46609    1.000
    N4538    N        0.81685    0.06964    0.48996    1.000
    N4539    N        0.97078    0.09127    0.37411    1.000
    Si4540   Si       0.90427    0.09704    0.44152    1.000
    N4541    N        0.94884    0.10010    0.44405    1.000
    N4542    N        0.90336    0.11443    0.48172    1.000
    N4543    N        0.88891    0.12845    0.41686    1.000
    Si4544   Si       0.81923    0.06271    0.36479    1.000
    Si4545   Si       0.76328    0.08283    0.57198    1.000
    N4546    N        0.85572    0.10825    0.53393    1.000
    Si4547   Si       0.83061    0.07166    0.53181    1.000
    N4548    N        0.75657    0.09072    0.61528    1.000
    N4549    N        0.77036    0.12323    0.55577    1.000
    Si4550   Si       0.87854    0.11230    0.57492    1.000
    N4551    N        0.91952    0.10308    0.56639    1.000
    N4552    N        0.86985    0.07051    0.58668    1.000
    Si4553   Si       0.91840    0.08510    0.73387    1.000
    N4554    N        0.96334    0.12687    0.51826    1.000
    Si4555   Si       0.79359    0.10048    0.63624    1.000
    N4556    N        0.79062    0.11371    0.67645    1.000
    Si4557   Si       0.80695    0.08445    0.70433    1.000
    N4558    N        0.82253    0.11341    0.73415    1.000
    N4559    N        0.76935    0.06521    0.71590    1.000
    N4560    N        0.96203    0.08349    0.74115    1.000
    N4561    N        0.89980    0.08768    0.69286    1.000
    Si4562   Si       0.76594    0.08263    0.82187    1.000
    Si4563   Si       0.82448    0.10105    0.77756    1.000
    N4564    N        0.78559    0.11251    0.79756    1.000
    N4565    N        0.76278    0.10164    0.86233    1.000
    N4566    N        0.86469    0.11185    0.79172    1.000
    N4567    N        0.91303    0.07917    0.84123    1.000
    Si4568   Si       0.88586    0.07660    0.80521    1.000
    Si4569   Si       0.94259    0.10518    0.85940    1.000
    N4570    N        0.94296    0.07043    0.92629    1.000
    N4571    N        0.81160    0.10474    0.95661    1.000
    Si4572   Si       0.80024    0.11675    0.87981    1.000
    N4573    N        0.80892    0.07778    0.89858    1.000
    N4574    N        0.74618    0.09756    0.93427    1.000
    Si4575   Si       0.74440    0.07089    0.97005    1.000
    N4576    N        0.88048    0.09267    0.94412    1.000
    N4577    N        0.98022    0.08759    0.87241    1.000
    Si4578   Si       0.97454    0.11858    0.97478    1.000
    Si4579   Si       0.98436    0.07058    0.91365    1.000
    Si4580   Si       0.92152    0.10715    0.93200    1.000
    N4581    N        0.92566    0.12496    0.89285    1.000
    Si4582   Si       0.81032    0.06436    0.94260    1.000
    N4583    N        0.77473    0.13166    0.04459    1.000
    Si4584   Si       0.85262    0.17248    0.00447    1.000
    N4585    N        0.80390    0.13400    0.10945    1.000
    Si4586   Si       0.78133    0.17305    0.03709    1.000
    Si4587   Si       0.79796    0.17652    0.11432    1.000
    N4588    N        0.87025    0.18145    0.04440    1.000
    N4589    N        0.90399    0.14797    0.09723    1.000
    Si4590   Si       0.90416    0.15578    0.05662    1.000
    N4591    N        0.93458    0.17997    0.03964    1.000
    Si4592   Si       0.78644    0.15493    0.18595    1.000
    N4593    N        0.80232    0.16650    0.22662    1.000
    N4594    N        0.74333    0.15981    0.17899    1.000
    N4595    N        0.80463    0.18117    0.15660    1.000
    N4596    N        0.86146    0.12301    0.14639    1.000
    N4597    N        0.87734    0.18587    0.23813    1.000
    Si4598   Si       0.87941    0.16029    0.13071    1.000
    Si4599   Si       0.90101    0.16745    0.20675    1.000
    N4600    N        0.93980    0.17419    0.22397    1.000
    N4601    N        0.90062    0.18083    0.16320    1.000
    N4602    N        0.96840    0.17919    0.14992    1.000
    N4603    N        0.81159    0.17871    0.00268    1.000
    N4604    N        0.83816    0.15056    0.33523    1.000
    Si4605   Si       0.78267    0.15613    0.26344    1.000
    Si4606   Si       0.80708    0.14341    0.36359    1.000
    Si4607   Si       0.95329    0.18000    0.42296    1.000
    N4608    N        0.92762    0.15281    0.29089    1.000
    Si4609   Si       0.88829    0.16803    0.27762    1.000
    Si4610   Si       0.95533    0.15381    0.25970    1.000
    N4611    N        0.98170    0.13993    0.32962    1.000
    N4612    N        0.86692    0.12963    0.27559    1.000
    N4613    N        0.88765    0.18408    0.37612    1.000
    N4614    N        0.82247    0.15304    0.40128    1.000
    Si4615   Si       0.85205    0.14836    0.43091    1.000
    N4616    N        0.74968    0.13142    0.39984    1.000
    N4617    N        0.83691    0.12698    0.46567    1.000
    N4618    N        0.95483    0.16729    0.46570    1.000
    Si4619   Si       0.94703    0.12626    0.47856    1.000
    N4620    N        0.94788    0.15314    0.38987    1.000
    Si4621   Si       0.90648    0.14511    0.38155    1.000
    Si4622   Si       0.98075    0.13324    0.37223    1.000
    Si4623   Si       0.94001    0.12562    0.32137    1.000
    N4624    N        0.76918    0.12754    0.47821    1.000
    Si4625   Si       0.77687    0.15501    0.58414    1.000
    Si4626   Si       0.83635    0.16770    0.60354    1.000
    Si4627   Si       0.75433    0.13311    0.51724    1.000
    N4628    N        0.80655    0.13352    0.61201    1.000
    N4629    N        0.81101    0.18331    0.57307    1.000
    N4630    N        0.73899    0.17383    0.59064    1.000
    N4631    N        0.74259    0.17501    0.52302    1.000
    Si4632   Si       0.86635    0.13252    0.49817    1.000
    N4633    N        0.93936    0.16239    0.58621    1.000
    N4634    N        0.87446    0.14616    0.59894    1.000
    N4635    N        0.87784    0.17454    0.50414    1.000
    Si4636   Si       0.91115    0.15925    0.61921    1.000
    Si4637   Si       0.95389    0.12847    0.55993    1.000
    Si4638   Si       0.76271    0.14613    0.68776    1.000
    Si4639   Si       0.83786    0.15227    0.72010    1.000
    N4640    N        0.76271    0.17330    0.65385    1.000
    N4641    N        0.74749    0.17286    0.72050    1.000
    N4642    N        0.80770    0.17944    0.70608    1.000
    Si4643   Si       0.98264    0.16687    0.73451    1.000
    N4644    N        0.86725    0.15568    0.68839    1.000
    N4645    N        0.91093    0.12873    0.73634    1.000
    N4646    N        0.97767    0.13893    0.70183    1.000
    Si4647   Si       0.90363    0.13007    0.69143    1.000
    N4648    N        0.92658    0.14110    0.65496    1.000
    Si4649   Si       0.96899    0.15098    0.66121    1.000
    Si4650   Si       0.76893    0.15375    0.79461    1.000
    N4651    N        0.76917    0.17325    0.83311    1.000
    N4652    N        0.85581    0.16890    0.75475    1.000
    N4653    N        0.79168    0.17978    0.77145    1.000
    N4654    N        0.83762    0.13189    0.86545    1.000
    Si4655   Si       0.88645    0.14344    0.76951    1.000
    Si4656   Si       0.94862    0.16420    0.79673    1.000
    N4657    N        0.90623    0.17122    0.79722    1.000
    N4658    N        0.97344    0.14322    0.77033    1.000
    N4659    N        0.95233    0.13626    0.83367    1.000
    Si4660   Si       0.97927    0.16769    0.84677    1.000
    Si4661   Si       0.84907    0.16820    0.88740    1.000
    N4662    N        0.79097    0.14637    0.90966    1.000
    N4663    N        0.76354    0.16565    0.96098    1.000
    N4664    N        0.85602    0.16258    0.93083    1.000
    Si4665   Si       0.77668    0.12617    0.94583    1.000
    N4666    N        0.93748    0.13565    0.96139    1.000
    Si4667   Si       0.92026    0.16648    0.88982    1.000
    Si4668   Si       0.92839    0.17642    0.96709    1.000
    N4669    N        0.88700    0.18197    0.86633    1.000
    Si4670   Si       0.85066    0.12496    0.95247    1.000
    N4671    N        0.85988    0.13251    0.99459    1.000
    Si4672   Si       0.84736    0.20128    0.07452    1.000
    N4673    N        0.74881    0.19752    0.01884    1.000
    Si4674   Si       0.76546    0.23396    0.10524    1.000
    N4675    N        0.75548    0.19288    0.11473    1.000
    N4676    N        0.80363    0.19059    0.07211    1.000
    N4677    N        0.85269    0.19239    0.11712    1.000
    Si4678   Si       0.97174    0.18799    0.19645    1.000
    Si4679   Si       0.90342    0.20612    0.02229    1.000
    Si4680   Si       0.96860    0.20357    0.02925    1.000
    N4681    N        0.93343    0.22269    0.11161    1.000
    N4682    N        0.96436    0.23945    0.05100    1.000
    Si4683   Si       0.96955    0.23891    0.09338    1.000
    N4684    N        0.94672    0.22844    0.18334    1.000
    N4685    N        0.80548    0.24063    0.12013    1.000
    Si4686   Si       0.83519    0.21838    0.15010    1.000
    Si4687   Si       0.83375    0.19401    0.22717    1.000
    N4688    N        0.84059    0.21640    0.19172    1.000
    Si4689   Si       0.93270    0.20402    0.15018    1.000
    Si4690   Si       0.77699    0.21424    0.33571    1.000
    Si4691   Si       0.78954    0.22906    0.27577    1.000
    N4692    N        0.77929    0.18872    0.29281    1.000
    N4693    N        0.82611    0.23084    0.25179    1.000
    Si4694   Si       0.85929    0.18857    0.34440    1.000
    N4695    N        0.83336    0.21520    0.36825    1.000
    N4696    N        0.88156    0.19763    0.30880    1.000
    Si4697   Si       0.90146    0.23461    0.31260    1.000
    N4698    N        0.94098    0.23808    0.32649    1.000
    Si4699   Si       0.84793    0.19769    0.48000    1.000
    Si4700   Si       0.80831    0.19588    0.39931    1.000
    N4701    N        0.78860    0.22049    0.42725    1.000
    N4702    N        0.85687    0.19109    0.43840    1.000
    N4703    N        0.86701    0.23629    0.48763    1.000
    Si4704   Si       0.96717    0.19857    0.49305    1.000
    Si4705   Si       0.88263    0.21188    0.40906    1.000
    N4706    N        0.93243    0.22658    0.48705    1.000
    N4707    N        0.92317    0.21240    0.42285    1.000
    N4708    N        0.99165    0.19986    0.41754    1.000
    N4709    N        0.78057    0.18082    0.36561    1.000
    Si4710   Si       0.81307    0.21280    0.54015    1.000
    Si4711   Si       0.76591    0.20260    0.50162    1.000
    N4712    N        0.77719    0.23618    0.52981    1.000
    N4713    N        0.81057    0.19370    0.50160    1.000
    N4714    N        0.84012    0.24246    0.55709    1.000
    Si4715   Si       0.93909    0.20368    0.56813    1.000
    N4716    N        0.94896    0.22775    0.60450    1.000
    N4717    N        0.96960    0.19713    0.53584    1.000
    N4718    N        0.90522    0.22547    0.54999    1.000
    Si4719   Si       0.89912    0.21472    0.50994    1.000
    N4720    N        0.83190    0.18962    0.64123    1.000
    Si4721   Si       0.77910    0.19675    0.73440    1.000
    N4722    N        0.78574    0.23535    0.67481    1.000
    Si4723   Si       0.79731    0.19392    0.66629    1.000
    N4724    N        0.85894    0.23160    0.68589    1.000
    N4725    N        0.77135    0.23779    0.74083    1.000
    Si4726   Si       0.98583    0.21648    0.62132    1.000
    N4727    N        0.97528    0.19600    0.65800    1.000
    N4728    N        0.89921    0.19704    0.63880    1.000
    Si4729   Si       0.91622    0.23719    0.63332    1.000
    Si4730   Si       0.86636    0.19437    0.66662    1.000
    N4731    N        0.95811    0.20052    0.72543    1.000
    Si4732   Si       0.96347    0.22405    0.68964    1.000
    Si4733   Si       0.83059    0.19706    0.77635    1.000
    Si4734   Si       0.80332    0.20054    0.84169    1.000
    N4735    N        0.84109    0.19467    0.81894    1.000
    N4736    N        0.83500    0.23887    0.76583    1.000
    N4737    N        0.78510    0.23930    0.84380    1.000
    N4738    N        0.89397    0.23735    0.81382    1.000
    Si4739   Si       0.88377    0.19592    0.82582    1.000
    N4740    N        0.97644    0.19518    0.81270    1.000
    N4741    N        0.96047    0.18428    0.88254    1.000
    Si4742   Si       0.77233    0.18306    0.91876    1.000
    N4743    N        0.82105    0.20125    0.88238    1.000
    Si4744   Si       0.78703    0.20366    0.97849    1.000
    N4745    N        0.78687    0.21953    0.93704    1.000
    Si4746   Si       0.81885    0.23347    0.91080    1.000
    N4747    N        0.85248    0.23466    0.94096    1.000
    N4748    N        0.73458    0.18777    0.89958    1.000
    Si4749   Si       0.98066    0.23514    0.96770    1.000
    N4750    N        0.95781    0.20291    0.98421    1.000
    Si4751   Si       0.87718    0.19973    0.94373    1.000
    N4752    N        0.91671    0.19431    0.92630    1.000
    N4753    N        0.88907    0.18913    0.98441    1.000
    Si4754   Si       0.94504    0.21881    0.90236    1.000
    Si4755   Si       0.84050    0.26429    0.10682    1.000
    Si4756   Si       0.80708    0.28303    0.00542    1.000
    N4757    N        0.75133    0.25111    0.06598    1.000
    N4758    N        0.84044    0.29076    0.03532    1.000
    N4759    N        0.86069    0.24317    0.07416    1.000
    N4760    N        0.79157    0.24122    0.00128    1.000
    Si4761   Si       0.75348    0.24055    0.02435    1.000
    N4762    N        0.76952    0.30105    0.01586    1.000
    N4763    N        0.98269    0.27870    0.10648    1.000
    Si4764   Si       0.87795    0.27034    0.04590    1.000
    Si4765   Si       0.94096    0.27226    0.03193    1.000
    N4766    N        0.91167    0.29604    0.05614    1.000
    N4767    N        0.90310    0.24791    0.02025    1.000
    Si4768   Si       0.84298    0.25212    0.21800    1.000
    Si4769   Si       0.77775    0.28575    0.22570    1.000
    N4770    N        0.81668    0.28311    0.20331    1.000
    N4771    N        0.74803    0.29313    0.19476    1.000
    N4772    N        0.86309    0.25720    0.14384    1.000
    N4773    N        0.88382    0.26431    0.21222    1.000
    Si4774   Si       0.90909    0.27876    0.24208    1.000
    N4775    N        0.92727    0.29457    0.16915    1.000
    Si4776   Si       0.95305    0.26995    0.19264    1.000
    N4777    N        0.95152    0.27417    0.23559    1.000
    Si4778   Si       0.88412    0.28209    0.17260    1.000
    Si4779   Si       0.80481    0.28880    0.32181    1.000
    N4780    N        0.79411    0.24687    0.31383    1.000
    N4781    N        0.81507    0.28688    0.36307    1.000
    Si4782   Si       0.84609    0.25698    0.36947    1.000
    N4783    N        0.76217    0.25324    0.24893    1.000
    N4784    N        0.87584    0.25980    0.33941    1.000
    N4785    N        0.89528    0.26306    0.27853    1.000
    Si4786   Si       0.97054    0.26702    0.34054    1.000
    Si4787   Si       0.87683    0.28979    0.30853    1.000
    Si4788   Si       0.97713    0.29423    0.26375    1.000
    N4789    N        0.95376    0.29824    0.36565    1.000
    N4790    N        0.84258    0.29691    0.46617    1.000
    N4791    N        0.77694    0.27706    0.46918    1.000
    Si4792   Si       0.75869    0.24603    0.44497    1.000
    Si4793   Si       0.87376    0.27997    0.49007    1.000
    N4794    N        0.96724    0.26565    0.43720    1.000
    Si4795   Si       0.86904    0.29073    0.43292    1.000
    Si4796   Si       0.92971    0.24900    0.44954    1.000
    N4797    N        0.87185    0.25547    0.40713    1.000
    N4798    N        0.90575    0.28622    0.45886    1.000
    Si4799   Si       0.97360    0.30073    0.40535    1.000
    N4800    N        0.99105    0.28573    0.30545    1.000
    Si4801   Si       0.80946    0.27179    0.56644    1.000
    N4802    N        0.77457    0.27001    0.59391    1.000
    Si4803   Si       0.76722    0.27482    0.51170    1.000
    N4804    N        0.83647    0.29789    0.58808    1.000
    N4805    N        0.79785    0.29712    0.53400    1.000
    N4806    N        0.88528    0.29010    0.53178    1.000
    Si4807   Si       0.88026    0.25934    0.56375    1.000
    N4808    N        0.89124    0.26400    0.60900    1.000
    Si4809   Si       0.78763    0.29432    0.62898    1.000
    Si4810   Si       0.82279    0.25546    0.68135    1.000
    N4811    N        0.82515    0.28138    0.64590    1.000
    N4812    N        0.82296    0.28161    0.71576    1.000
    N4813    N        0.75236    0.29139    0.65685    1.000
    Si4814   Si       0.74542    0.24967    0.66696    1.000
    N4815    N        0.92621    0.24450    0.67630    1.000
    Si4816   Si       0.86134    0.29233    0.62547    1.000
    N4817    N        0.88059    0.29691    0.68022    1.000
    Si4818   Si       0.89145    0.26032    0.70025    1.000
    N4819    N        0.89344    0.26834    0.74407    1.000
    Si4820   Si       0.74815    0.25715    0.85380    1.000
    Si4821   Si       0.80404    0.26485    0.75014    1.000
    N4822    N        0.79084    0.29317    0.77998    1.000
    N4823    N        0.86209    0.29650    0.79068    1.000
    Si4824   Si       0.87354    0.25562    0.78094    1.000
    Si4825   Si       0.92596    0.26006    0.83368    1.000
    N4826    N        0.96130    0.26178    0.80707    1.000
    N4827    N        0.81754    0.29720    0.96592    1.000
    N4828    N        0.82488    0.27580    0.90140    1.000
    Si4829   Si       0.84663    0.27803    0.93994    1.000
    N4830    N        0.75608    0.28539    0.88866    1.000
    N4831    N        0.93311    0.25127    0.87466    1.000
    N4832    N        0.96552    0.24632    0.92856    1.000
    Si4833   Si       0.95717    0.27765    0.89901    1.000
    N4834    N        0.96547    0.26716    0.99267    1.000
    N4835    N        0.88131    0.30195    0.94074    1.000
    Si4836   Si       0.83637    0.32260    0.06328    1.000
    Si4837   Si       0.76194    0.32992    0.04479    1.000
    N4838    N        0.80144    0.34453    0.05608    1.000
    N4839    N        0.84223    0.30611    0.10520    1.000
    Si4840   Si       0.74249    0.35360    0.11173    1.000
    N4841    N        0.74183    0.32222    0.08137    1.000
    N4842    N        0.86799    0.35112    0.06483    1.000
    Si4843   Si       0.90752    0.33348    0.07524    1.000
    N4844    N        0.97545    0.30858    0.04268    1.000
    Si4845   Si       0.96383    0.35275    0.02849    1.000
    N4846    N        0.90624    0.33183    0.11908    1.000
    Si4847   Si       0.75764    0.33494    0.18486    1.000
    Si4848   Si       0.82485    0.32834    0.20491    1.000
    N4849    N        0.79808    0.34369    0.17293    1.000
    N4850    N        0.79571    0.32330    0.24252    1.000
    Si4851   Si       0.86400    0.33330    0.13307    1.000
    N4852    N        0.86463    0.32168    0.17623    1.000
    Si4853   Si       0.93422    0.33393    0.15216    1.000
    N4854    N        0.97701    0.33560    0.14341    1.000
    Si4855   Si       0.88634    0.34476    0.20942    1.000
    N4856    N        0.90473    0.32260    0.24024    1.000
    N4857    N        0.84865    0.35885    0.22529    1.000
    Si4858   Si       0.80661    0.33354    0.28114    1.000
    N4859    N        0.77843    0.32405    0.31250    1.000
    Si4860   Si       0.75332    0.34869    0.33998    1.000
    N4861    N        0.82834    0.35587    0.35820    1.000
    N4862    N        0.83671    0.30254    0.29558    1.000
    Si4863   Si       0.92991    0.32841    0.34796    1.000
    N4864    N        0.96290    0.33458    0.26989    1.000
    Si4865   Si       0.91991    0.34062    0.27598    1.000
    N4866    N        0.90640    0.31987    0.31285    1.000
    Si4867   Si       0.75939    0.35263    0.41663    1.000
    N4868    N        0.79942    0.33511    0.42575    1.000
    Si4869   Si       0.80328    0.31267    0.46379    1.000
    Si4870   Si       0.81628    0.32237    0.38592    1.000
    N4871    N        0.75546    0.33010    0.37893    1.000
    N4872    N        0.85828    0.32049    0.40152    1.000
    N4873    N        0.79835    0.34864    0.49306    1.000
    N4874    N        0.90180    0.35514    0.44967    1.000
    Si4875   Si       0.92927    0.32430    0.46443    1.000
    N4876    N        0.95421    0.33182    0.42895    1.000
    N4877    N        0.90739    0.35638    0.37550    1.000
    N4878    N        0.75678    0.34791    0.55579    1.000
    Si4879   Si       0.82917    0.34033    0.59874    1.000
    Si4880   Si       0.79403    0.33901    0.53518    1.000
    Si4881   Si       0.75276    0.35352    0.59874    1.000
    N4882    N        0.94146    0.32477    0.64256    1.000
    N4883    N        0.78969    0.33828    0.61993    1.000
    Si4884   Si       0.90231    0.32910    0.53280    1.000
    Si4885   Si       0.94171    0.34320    0.60364    1.000
    N4886    N        0.91536    0.34549    0.56934    1.000
    N4887    N        0.93954    0.33158    0.50628    1.000
    N4888    N        0.98043    0.33350    0.58733    1.000
    Si4889   Si       0.96959    0.35897    0.52238    1.000
    N4890    N        0.87458    0.36050    0.51578    1.000
    Si4891   Si       0.84862    0.31695    0.70218    1.000
    N4892    N        0.82584    0.34677    0.67848    1.000
    N4893    N        0.86473    0.33709    0.62379    1.000
    N4894    N        0.94600    0.32926    0.70275    1.000
    Si4895   Si       0.97679    0.33281    0.66853    1.000
    Si4896   Si       0.91230    0.32737    0.67478    1.000
    N4897    N        0.86921    0.33815    0.73504    1.000
    Si4898   Si       0.94594    0.35242    0.73822    1.000
    Si4899   Si       0.82258    0.31399    0.80196    1.000
    N4900    N        0.80820    0.31713    0.84353    1.000
    N4901    N        0.74548    0.34473    0.79495    1.000
    N4902    N        0.82164    0.35842    0.79832    1.000
    Si4903   Si       0.80528    0.36078    0.84097    1.000
    Si4904   Si       0.74969    0.30314    0.78704    1.000
    N4905    N        0.98859    0.32632    0.81717    1.000
    N4906    N        0.93005    0.32451    0.76968    1.000
    Si4907   Si       0.88975    0.31020    0.76090    1.000
    Si4908   Si       0.92389    0.33096    0.86467    1.000
    N4909    N        0.92201    0.30272    0.83292    1.000
    Si4910   Si       0.95822    0.30268    0.79592    1.000
    Si4911   Si       0.78989    0.32719    0.95149    1.000
    N4912    N        0.80152    0.34125    0.91193    1.000
    N4913    N        0.74918    0.30992    0.95092    1.000
    Si4914   Si       0.79733    0.30547    0.88390    1.000
    Si4915   Si       0.90327    0.33409    0.92254    1.000
    N4916    N        0.88777    0.34570    0.88305    1.000
    N4917    N        0.93839    0.31495    0.90434    1.000
    N4918    N        0.96784    0.33848    0.98729    1.000
    Si4919   Si       0.98844    0.35753    0.84525    1.000
    Si4920   Si       0.79730    0.38524    0.06850    1.000
    N4921    N        0.78147    0.37745    0.10711    1.000
    N4922    N        0.78210    0.40477    0.03285    1.000
    N4923    N        0.83222    0.40987    0.07925    1.000
    N4924    N        0.85488    0.39204    0.01153    1.000
    Si4925   Si       0.76067    0.38206    0.99990    1.000
    Si4926   Si       0.86013    0.41200    0.11579    1.000
    Si4927   Si       0.86656    0.39292    0.05201    1.000
    Si4928   Si       0.93574    0.39960    0.08251    1.000
    N4929    N        0.89424    0.41422    0.08229    1.000
    N4930    N        0.93361    0.36173    0.06102    1.000
    Si4931   Si       0.97789    0.41813    0.02710    1.000
    N4932    N        0.95092    0.39957    0.12211    1.000
    N4933    N        0.95993    0.39785    0.23906    1.000
    Si4934   Si       0.80638    0.37436    0.14281    1.000
    N4935    N        0.79531    0.39844    0.22687    1.000
    N4936    N        0.84711    0.37182    0.13125    1.000
    N4937    N        0.78767    0.41031    0.15888    1.000
    Si4938   Si       0.75535    0.39088    0.23758    1.000
    Si4939   Si       0.76426    0.41423    0.12195    1.000
    N4940    N        0.91266    0.36583    0.18068    1.000
    Si4941   Si       0.90871    0.40887    0.18199    1.000
    Si4942   Si       0.97648    0.41498    0.20257    1.000
    N4943    N        0.94972    0.39527    0.00214    1.000
    N4944    N        0.77017    0.38753    0.33726    1.000
    Si4945   Si       0.81399    0.38437    0.32996    1.000
    N4946    N        0.82147    0.37269    0.28848    1.000
    Si4947   Si       0.83160    0.39260    0.25080    1.000
    Si4948   Si       0.75024    0.41641    0.31085    1.000
    N4949    N        0.90463    0.38064    0.27849    1.000
    Si4950   Si       0.93413    0.39511    0.36394    1.000
    Si4951   Si       0.92215    0.41193    0.25577    1.000
    Si4952   Si       0.98495    0.37016    0.25889    1.000
    N4953    N        0.95639    0.36342    0.34057    1.000
    Si4954   Si       0.81484    0.38692    0.47982    1.000
    N4955    N        0.84738    0.39450    0.45520    1.000
    N4956    N        0.75477    0.39541    0.41396    1.000
    N4957    N        0.78287    0.41632    0.47467    1.000
    N4958    N        0.86052    0.40303    0.39120    1.000
    N4959    N        0.94379    0.40146    0.40464    1.000
    Si4960   Si       0.88343    0.37892    0.47825    1.000
    Si4961   Si       0.92894    0.36352    0.41608    1.000
    N4962    N        0.97481    0.38297    0.48367    1.000
    N4963    N        0.90728    0.41218    0.48451    1.000
    N4964    N        0.74075    0.38800    0.27921    1.000
    Si4965   Si       0.86527    0.35999    0.38453    1.000
    Si4966   Si       0.99215    0.38847    0.33468    1.000
    Si4967   Si       0.85290    0.38575    0.54410    1.000
    N4968    N        0.82690    0.40928    0.51712    1.000
    N4969    N        0.75471    0.39510    0.60659    1.000
    N4970    N        0.93910    0.38695    0.60702    1.000
    N4971    N        0.95122    0.39583    0.53915    1.000
    Si4972   Si       0.91893    0.39150    0.56859    1.000
    N4973    N        0.88244    0.41146    0.56004    1.000
    N4974    N        0.76547    0.38720    0.67451    1.000
    Si4975   Si       0.75932    0.40475    0.71416    1.000
    N4976    N        0.82729    0.39029    0.63639    1.000
    N4977    N        0.84323    0.39954    0.73773    1.000
    Si4978   Si       0.85640    0.36643    0.65434    1.000
    Si4979   Si       0.79456    0.36628    0.65287    1.000
    Si4980   Si       0.88067    0.38316    0.72184    1.000
    N4981    N        0.89027    0.36558    0.68060    1.000
    N4982    N        0.98227    0.37467    0.73958    1.000
    Si4983   Si       0.96456    0.40000    0.63740    1.000
    N4984    N        0.98914    0.37232    0.65961    1.000
    N4985    N        0.91921    0.38662    0.74250    1.000
    N4986    N        0.82318    0.36001    0.56282    1.000
    Si4987   Si       0.95034    0.41995    0.49711    1.000
    N4988    N        0.76543    0.37501    0.85372    1.000
    Si4989   Si       0.81510    0.39258    0.77140    1.000
    N4990    N        0.77497    0.39167    0.75398    1.000
    N4991    N        0.83182    0.38156    0.86693    1.000
    N4992    N        0.89016    0.39435    0.82772    1.000
    Si4993   Si       0.93417    0.40327    0.83468    1.000
    N4994    N        0.94816    0.36609    0.85715    1.000
    N4995    N        0.95814    0.40919    0.80046    1.000
    Si4996   Si       0.93231    0.41927    0.76613    1.000
    Si4997   Si       0.87559    0.38330    0.86719    1.000
    N4998    N        0.74413    0.40948    0.97068    1.000
    N4999    N        0.84508    0.38756    0.94003    1.000
    Si5000   Si       0.81610    0.38190    0.90675    1.000
    Si5001   Si       0.75185    0.40006    0.88537    1.000
    Si5002   Si       0.82554    0.39115    0.97887    1.000
    N5003    N        0.78596    0.41350    0.91090    1.000
    N5004    N        0.79241    0.36201    0.98004    1.000
    N5005    N        0.98020    0.38909    0.93569    1.000
    N5006    N        0.89138    0.41184    0.89623    1.000
    Si5007   Si       0.95370    0.37348    0.96634    1.000
    Si5008   Si       0.88708    0.40238    0.93817    1.000
    N5009    N        0.91521    0.37104    0.94575    1.000
    Si5010   Si       0.81996    0.45359    0.08604    1.000
    Si5011   Si       0.79028    0.44484    0.01727    1.000
    N5012    N        0.78069    0.45362    0.10567    1.000
    N5013    N        0.81759    0.46634    0.04373    1.000
    N5014    N        0.75318    0.46569    0.01966    1.000
    N5015    N        0.85256    0.45922    0.11286    1.000
    N5016    N        0.95210    0.43246    0.05917    1.000
    Si5017   Si       0.88978    0.45725    0.08923    1.000
    Si5018   Si       0.94185    0.47021    0.04277    1.000
    N5019    N        0.92366    0.46661    0.11600    1.000
    N5020    N        0.94615    0.46788    0.00017    1.000
    N5021    N        0.89672    0.42073    0.22212    1.000
    N5022    N        0.77806    0.46529    0.20183    1.000
    Si5023   Si       0.80103    0.42703    0.19655    1.000
    N5024    N        0.83812    0.44952    0.19906    1.000
    Si5025   Si       0.85909    0.46487    0.15916    1.000
    Si5026   Si       0.74137    0.46869    0.22350    1.000
    Si5027   Si       0.86728    0.44992    0.22928    1.000
    N5028    N        0.94622    0.43098    0.17895    1.000
    Si5029   Si       0.95052    0.44042    0.13795    1.000
    N5030    N        0.88137    0.42576    0.15361    1.000
    N5031    N        0.77506    0.44814    0.29580    1.000
    Si5032   Si       0.82203    0.45166    0.29599    1.000
    N5033    N        0.83913    0.43366    0.25963    1.000
    N5034    N        0.83278    0.42407    0.32881    1.000
    Si5035   Si       0.86414    0.42940    0.35662    1.000
    Si5036   Si       0.93612    0.44808    0.32551    1.000
    N5037    N        0.93373    0.44267    0.28292    1.000
    N5038    N        0.96911    0.42417    0.34471    1.000
    N5039    N        0.90458    0.42098    0.34287    1.000
    N5040    N        0.85598    0.46928    0.37471    1.000
    N5041    N        0.81124    0.44978    0.41624    1.000
    Si5042   Si       0.77540    0.42952    0.43458    1.000
    Si5043   Si       0.84875    0.42749    0.42441    1.000
    Si5044   Si       0.97162    0.42924    0.42213    1.000
    Si5045   Si       0.90303    0.45839    0.48074    1.000
    N5046    N        0.87792    0.45379    0.43929    1.000
    N5047    N        0.95825    0.44500    0.46153    1.000
    N5048    N        0.98173    0.46472    0.39822    1.000
    Si5049   Si       0.99761    0.45948    0.35503    1.000
    Si5050   Si       0.98754    0.47045    0.48261    1.000
    Si5051   Si       0.79325    0.43658    0.51327    1.000
    N5052    N        0.83535    0.46860    0.55840    1.000
    N5053    N        0.80203    0.44943    0.61042    1.000
    Si5054   Si       0.76794    0.43267    0.59095    1.000
    N5055    N        0.76499    0.43183    0.54649    1.000
    N5056    N        0.80132    0.47714    0.49749    1.000
    N5057    N        0.87392    0.47004    0.51056    1.000
    N5058    N        0.93423    0.45852    0.51702    1.000
    Si5059   Si       0.87615    0.45157    0.55021    1.000
    N5060    N        0.96679    0.45400    0.57902    1.000
    Si5061   Si       0.98026    0.42263    0.55446    1.000
    Si5062   Si       0.90512    0.44074    0.66419    1.000
    N5063    N        0.75989    0.44868    0.71032    1.000
    N5064    N        0.82119    0.45034    0.67844    1.000
    Si5065   Si       0.84577    0.43699    0.71402    1.000
    Si5066   Si       0.83228    0.43302    0.63788    1.000
    Si5067   Si       0.78227    0.47170    0.68302    1.000
    N5068    N        0.85093    0.47280    0.73807    1.000
    N5069    N        0.87510    0.44032    0.63273    1.000
    N5070    N        0.94430    0.42525    0.66707    1.000
    N5071    N        0.88398    0.42588    0.69944    1.000
    Si5072   Si       0.97567    0.45291    0.67849    1.000
    N5073    N        0.96176    0.43956    0.74320    1.000
    N5074    N        0.79002    0.45142    0.85612    1.000
    Si5075   Si       0.81968    0.45660    0.82703    1.000
    Si5076   Si       0.74805    0.46355    0.85014    1.000
    N5077    N        0.82731    0.42595    0.79822    1.000
    N5078    N        0.86560    0.46009    0.83712    1.000
    N5079    N        0.89881    0.44088    0.78017    1.000
    N5080    N        0.93919    0.44264    0.85600    1.000
    Si5081   Si       0.87032    0.42613    0.80860    1.000
    Si5082   Si       0.98108    0.46147    0.85714    1.000
    Si5083   Si       0.88840    0.47987    0.76265    1.000
    N5084    N        0.77403    0.47218    0.93058    1.000
    N5085    N        0.80777    0.43266    0.97520    1.000
    Si5086   Si       0.84485    0.45365    0.95858    1.000
    Si5087   Si       0.77313    0.43201    0.94900    1.000
    Si5088   Si       0.80222    0.46025    0.89870    1.000
    N5089    N        0.84089    0.46601    0.91669    1.000
    N5090    N        0.88483    0.43836    0.96287    1.000
    Si5091   Si       0.91466    0.44764    0.89249    1.000
    Si5092   Si       0.92134    0.46419    0.96419    1.000
    N5093    N        0.94012    0.44675    0.92960    1.000
    Si5094   Si       0.98035    0.43201    0.92482    1.000
    Si5095   Si       0.82868    0.50030    0.01988    1.000
    Si5096   Si       0.75614    0.50585    0.03592    1.000
    N5097    N        0.79199    0.52174    0.01771    1.000
    Si5098   Si       0.75781    0.49017    0.11394    1.000
    N5099    N        0.85450    0.52583    0.04355    1.000
    N5100    N        0.74591    0.51163    0.07612    1.000
    N5101    N        0.96740    0.50093    0.05923    1.000
    Si5102   Si       0.89554    0.52224    0.05486    1.000
    N5103    N        0.90066    0.52969    0.09776    1.000
    Si5104   Si       0.97199    0.53170    0.02678    1.000
    N5105    N        0.77619    0.52803    0.12714    1.000
    Si5106   Si       0.81474    0.48867    0.20415    1.000
    N5107    N        0.82554    0.49731    0.16312    1.000
    N5108    N        0.81478    0.51757    0.23368    1.000
    Si5109   Si       0.81035    0.53528    0.15072    1.000
    N5110    N        0.89236    0.49328    0.16883    1.000
    N5111    N        0.88001    0.49021    0.23607    1.000
    Si5112   Si       0.91043    0.50486    0.20812    1.000
    N5113    N        0.94971    0.52141    0.15431    1.000
    N5114    N        0.95036    0.49438    0.22090    1.000
    Si5115   Si       0.91549    0.50515    0.13295    1.000
    Si5116   Si       0.96395    0.52414    0.25362    1.000
    N5117    N        0.90116    0.47931    0.05474    1.000
    N5118    N        0.78335    0.50263    0.32982    1.000
    Si5119   Si       0.85152    0.51162    0.26006    1.000
    N5120    N        0.83707    0.49124    0.29611    1.000
    Si5121   Si       0.82013    0.52345    0.32315    1.000
    N5122    N        0.85483    0.52802    0.35220    1.000
    Si5123   Si       0.75371    0.48663    0.30166    1.000
    Si5124   Si       0.76040    0.51949    0.36272    1.000
    N5125    N        0.73982    0.49375    0.26072    1.000
    Si5126   Si       0.94469    0.51574    0.32187    1.000
    Si5127   Si       0.88358    0.49719    0.35796    1.000
    N5128    N        0.91377    0.48697    0.32930    1.000
    N5129    N        0.98046    0.48923    0.32540    1.000
    N5130    N        0.93243    0.53200    0.28036    1.000
    N5131    N        0.79558    0.51829    0.39273    1.000
    N5132    N        0.75828    0.51478    0.44882    1.000
    N5133    N        0.85288    0.51697    0.41658    1.000
    Si5134   Si       0.82493    0.48623    0.39952    1.000
    Si5135   Si       0.78154    0.51487    0.48596    1.000
    N5136    N        0.91140    0.50148    0.46227    1.000
    N5137    N        0.90874    0.50673    0.39095    1.000
    Si5138   Si       0.94338    0.53220    0.46235    1.000
    Si5139   Si       0.88693    0.49380    0.42593    1.000
    N5140    N        0.97456    0.51157    0.48395    1.000
    N5141    N        0.79820    0.52507    0.58649    1.000
    Si5142   Si       0.83774    0.48972    0.52025    1.000
    N5143    N        0.76110    0.52490    0.52147    1.000
    Si5144   Si       0.81945    0.48584    0.59324    1.000
    N5145    N        0.83344    0.53167    0.52970    1.000
    N5146    N        0.85043    0.50074    0.61860    1.000
    N5147    N        0.95830    0.51597    0.55324    1.000
    Si5148   Si       0.93831    0.47762    0.55637    1.000
    Si5149   Si       0.88870    0.48091    0.61962    1.000
    Si5150   Si       0.76131    0.52879    0.72214    1.000
    Si5151   Si       0.83389    0.51151    0.72743    1.000
    N5152    N        0.79450    0.50555    0.70964    1.000
    N5153    N        0.86038    0.52510    0.69851    1.000
    Si5154   Si       0.95127    0.51508    0.65641    1.000
    N5155    N        0.97595    0.48877    0.70372    1.000
    N5156    N        0.91293    0.49200    0.73003    1.000
    Si5157   Si       0.90068    0.50872    0.69448    1.000
    Si5158   Si       0.95480    0.48334    0.74035    1.000
    N5159    N        0.90886    0.48335    0.66018    1.000
    N5160    N        0.97428    0.47780    0.64262    1.000
    N5161    N        0.90078    0.47480    0.57699    1.000
    N5162    N        0.74968    0.48163    0.65489    1.000
    N5163    N        0.81569    0.49644    0.80899    1.000
    Si5164   Si       0.77625    0.51641    0.80371    1.000
    Si5165   Si       0.85022    0.52458    0.80468    1.000
    N5166    N        0.74319    0.48625    0.81130    1.000
    N5167    N        0.76122    0.52840    0.76641    1.000
    N5168    N        0.86661    0.52533    0.84977    1.000
    N5169    N        0.89032    0.50708    0.79486    1.000
    N5170    N        0.93519    0.51062    0.84185    1.000
    N5171    N        0.96074    0.50268    0.77784    1.000
    Si5172   Si       0.93014    0.52412    0.80153    1.000
    Si5173   Si       0.89574    0.49146    0.84498    1.000
    Si5174   Si       0.96273    0.53202    0.86596    1.000
    Si5175   Si       0.77300    0.52527    0.87271    1.000
    Si5176   Si       0.85225    0.50109    0.88941    1.000
    N5177    N        0.84444    0.49223    0.97992    1.000
    N5178    N        0.80896    0.50557    0.88301    1.000
    Si5179   Si       0.74542    0.50374    0.92199    1.000
    Si5180   Si       0.84691    0.52731    0.95614    1.000
    N5181    N        0.74049    0.49508    0.87915    1.000
    N5182    N        0.91493    0.50670    0.95589    1.000
    N5183    N        0.89697    0.48881    0.88899    1.000
    Si5184   Si       0.90749    0.52208    0.91683    1.000
    N5185    N        0.86544    0.53553    0.91706    1.000
    Si5186   Si       0.83154    0.56108    0.04754    1.000
    N5187    N        0.79843    0.56702    0.07569    1.000
    Si5188   Si       0.76232    0.56050    0.10249    1.000
    N5189    N        0.81558    0.58404    0.01441    1.000
    Si5190   Si       0.82230    0.58987    0.10767    1.000
    N5191    N        0.85903    0.58401    0.07725    1.000
    Si5192   Si       0.87983    0.56543    0.11388    1.000
    N5193    N        0.92636    0.53798    0.02472    1.000
    N5194    N        0.84063    0.55918    0.13308    1.000
    Si5195   Si       0.78842    0.55368    0.22715    1.000
    N5196    N        0.79581    0.55751    0.18370    1.000
    N5197    N        0.74300    0.55302    0.22370    1.000
    N5198    N        0.78344    0.59265    0.12797    1.000
    N5199    N        0.81280    0.58575    0.24502    1.000
    N5200    N        0.97699    0.56265    0.24186    1.000
    N5201    N        0.96899    0.58197    0.17065    1.000
    N5202    N        0.91184    0.54775    0.21226    1.000
    N5203    N        0.90649    0.57216    0.14642    1.000
    Si5204   Si       0.93280    0.55807    0.17446    1.000
    Si5205   Si       0.98900    0.58966    0.21068    1.000
    N5206    N        0.80837    0.56269    0.31108    1.000
    Si5207   Si       0.83416    0.58074    0.28135    1.000
    Si5208   Si       0.77699    0.58872    0.32840    1.000
    N5209    N        0.75338    0.56216    0.35569    1.000
    N5210    N        0.86444    0.55053    0.27065    1.000
    N5211    N        0.95131    0.54699    0.35096    1.000
    Si5212   Si       0.90406    0.55723    0.25608    1.000
    Si5213   Si       0.98160    0.57560    0.34259    1.000
    N5214    N        0.74316    0.58789    0.49111    1.000
    N5215    N        0.84002    0.59000    0.38795    1.000
    N5216    N        0.78151    0.58079    0.42697    1.000
    Si5217   Si       0.85904    0.55148    0.38906    1.000
    N5218    N        0.81167    0.53993    0.47005    1.000
    Si5219   Si       0.79224    0.54194    0.43019    1.000
    N5220    N        0.95189    0.55131    0.42644    1.000
    N5221    N        0.89739    0.57320    0.39031    1.000
    Si5222   Si       0.92945    0.54506    0.39011    1.000
    N5223    N        0.91695    0.59865    0.25937    1.000
    N5224    N        0.83730    0.57429    0.58447    1.000
    Si5225   Si       0.80966    0.55719    0.55584    1.000
    N5226    N        0.76788    0.57984    0.56469    1.000
    Si5227   Si       0.75800    0.54211    0.59126    1.000
    N5228    N        0.81311    0.58998    0.51910    1.000
    Si5229   Si       0.83800    0.54274    0.61582    1.000
    Si5230   Si       0.83827    0.55958    0.49683    1.000
    N5231    N        0.93921    0.53531    0.61896    1.000
    N5232    N        0.97005    0.57907    0.56562    1.000
    Si5233   Si       0.96892    0.54080    0.58820    1.000
    N5234    N        0.87271    0.58615    0.49879    1.000
    Si5235   Si       0.96861    0.54018    0.51827    1.000
    N5236    N        0.90617    0.59233    0.58598    1.000
    N5237    N        0.93769    0.55946    0.49608    1.000
    N5238    N        0.75861    0.56968    0.62420    1.000
    Si5239   Si       0.85390    0.55846    0.67295    1.000
    Si5240   Si       0.77919    0.57389    0.66265    1.000
    N5241    N        0.76093    0.56673    0.70161    1.000
    N5242    N        0.81751    0.55328    0.65373    1.000
    N5243    N        0.92790    0.54022    0.68485    1.000
    N5244    N        0.87487    0.55875    0.63451    1.000
    Si5245   Si       0.91356    0.57093    0.62144    1.000
    Si5246   Si       0.94784    0.57850    0.68894    1.000
    N5247    N        0.86710    0.59590    0.68934    1.000
    Si5248   Si       0.84093    0.57991    0.77090    1.000
    N5249    N        0.84412    0.57189    0.81476    1.000
    N5250    N        0.77504    0.54372    0.83522    1.000
    Si5251   Si       0.81109    0.57116    0.84443    1.000
    Si5252   Si       0.74652    0.57984    0.82524    1.000
    N5253    N        0.83970    0.53833    0.76120    1.000
    Si5254   Si       0.88294    0.56643    0.83624    1.000
    N5255    N        0.91917    0.56527    0.81032    1.000
    N5256    N        0.97850    0.56654    0.84458    1.000
    Si5257   Si       0.95271    0.59076    0.81931    1.000
    N5258    N        0.88646    0.59275    0.87121    1.000
    N5259    N        0.74423    0.56298    0.98006    1.000
    N5260    N        0.75726    0.54593    0.90868    1.000
    N5261    N        0.81707    0.57736    0.88752    1.000
    Si5262   Si       0.79196    0.56918    0.92308    1.000
    N5263    N        0.80782    0.54416    0.95560    1.000
    Si5264   Si       0.85882    0.57871    0.90113    1.000
    Si5265   Si       0.78845    0.55704    0.99132    1.000
    Si5266   Si       0.91393    0.54104    0.98354    1.000
    N5267    N        0.87236    0.55355    0.98072    1.000
    N5268    N        0.92520    0.57991    0.96293    1.000
    Si5269   Si       0.95162    0.57611    0.93049    1.000
    N5270    N        0.94115    0.54439    0.90300    1.000
    Si5271   Si       0.88429    0.59423    0.96999    1.000
    Si5272   Si       0.83725    0.62040    0.01648    1.000
    N5273    N        0.83104    0.64097    0.05212    1.000
    Si5274   Si       0.86027    0.63913    0.08450    1.000
    N5275    N        0.83792    0.62774    0.11990    1.000
    N5276    N        0.95296    0.62801    0.02623    1.000
    Si5277   Si       0.90986    0.63583    0.03097    1.000
    N5278    N        0.90246    0.63570    0.07559    1.000
    N5279    N        0.97389    0.61318    0.09287    1.000
    N5280    N        0.87819    0.61889    0.00590    1.000
    Si5281   Si       0.94039    0.64306    0.09569    1.000
    Si5282   Si       0.98740    0.61445    0.04770    1.000
    Si5283   Si       0.82141    0.62449    0.22736    1.000
    N5284    N        0.80812    0.62301    0.18557    1.000
    Si5285   Si       0.82096    0.64934    0.15236    1.000
    Si5286   Si       0.77686    0.59535    0.16876    1.000
    N5287    N        0.86402    0.63713    0.22561    1.000
    N5288    N        0.97855    0.62302    0.23506    1.000
    N5289    N        0.94050    0.63816    0.13938    1.000
    Si5290   Si       0.97518    0.61117    0.13805    1.000
    N5291    N        0.85055    0.61932    0.29023    1.000
    N5292    N        0.78684    0.61806    0.35761    1.000
    N5293    N        0.76180    0.61221    0.29458    1.000
    Si5294   Si       0.76042    0.65221    0.35200    1.000
    Si5295   Si       0.76891    0.65257    0.27843    1.000
    Si5296   Si       0.98375    0.64504    0.31544    1.000
    Si5297   Si       0.88496    0.62785    0.26207    1.000
    N5298    N        0.88690    0.63388    0.34991    1.000
    N5299    N        0.97079    0.60359    0.30822    1.000
    Si5300   Si       0.97816    0.62802    0.46242    1.000
    Si5301   Si       0.96081    0.59699    0.26590    1.000
    Si5302   Si       0.74831    0.60008    0.45053    1.000
    N5303    N        0.74447    0.64441    0.44786    1.000
    N5304    N        0.84227    0.64594    0.48499    1.000
    N5305    N        0.81104    0.64368    0.41959    1.000
    Si5306   Si       0.80240    0.60788    0.39752    1.000
    Si5307   Si       0.84397    0.65343    0.44225    1.000
    Si5308   Si       0.87724    0.61200    0.38523    1.000
    N5309    N        0.93425    0.62164    0.45939    1.000
    N5310    N        0.87832    0.63847    0.41965    1.000
    N5311    N        0.94225    0.64184    0.38806    1.000
    Si5312   Si       0.92136    0.64798    0.42648    1.000
    Si5313   Si       0.98230    0.63160    0.38620    1.000
    Si5314   Si       0.86595    0.65236    0.31642    1.000
    Si5315   Si       0.91557    0.59698    0.49067    1.000
    N5316    N        0.78850    0.63597    0.60426    1.000
    Si5317   Si       0.84698    0.61699    0.51464    1.000
    N5318    N        0.76988    0.64403    0.53228    1.000
    Si5319   Si       0.75780    0.60705    0.59951    1.000
    N5320    N        0.85783    0.63493    0.55182    1.000
    Si5321   Si       0.77040    0.60023    0.52341    1.000
    Si5322   Si       0.86432    0.60898    0.58731    1.000
    N5323    N        0.92978    0.62303    0.52516    1.000
    Si5324   Si       0.93962    0.60933    0.56486    1.000
    N5325    N        0.94926    0.64302    0.59250    1.000
    N5326    N        0.75108    0.62565    0.72931    1.000
    Si5327   Si       0.81738    0.63956    0.63599    1.000
    N5328    N        0.79171    0.61639    0.66684    1.000
    Si5329   Si       0.77531    0.64355    0.69668    1.000
    N5330    N        0.85964    0.62683    0.62679    1.000
    Si5331   Si       0.88948    0.61546    0.71908    1.000
    N5332    N        0.92991    0.59830    0.65077    1.000
    N5333    N        0.98798    0.59974    0.69595    1.000
    Si5334   Si       0.88842    0.62074    0.65983    1.000
    N5335    N        0.92754    0.59631    0.72449    1.000
    Si5336   Si       0.95976    0.62596    0.63180    1.000
    N5337    N        0.89362    0.64914    0.69164    1.000
    N5338    N        0.78134    0.60451    0.83533    1.000
    Si5339   Si       0.76557    0.62148    0.76808    1.000
    N5340    N        0.80620    0.60610    0.76220    1.000
    Si5341   Si       0.77542    0.64782    0.83090    1.000
    Si5342   Si       0.83233    0.64122    0.74743    1.000
    N5343    N        0.86662    0.61363    0.75733    1.000
    N5344    N        0.94520    0.62343    0.84851    1.000
    Si5345   Si       0.90272    0.63283    0.86274    1.000
    N5346    N        0.97414    0.60349    0.78497    1.000
    Si5347   Si       0.94900    0.62118    0.75484    1.000
    Si5348   Si       0.88344    0.65044    0.78693    1.000
    N5349    N        0.88215    0.65367    0.83007    1.000
    N5350    N        0.92390    0.65554    0.76946    1.000
    Si5351   Si       0.82160    0.62914    0.94651    1.000
    N5352    N        0.81752    0.64551    0.98563    1.000
    N5353    N        0.85630    0.60514    0.93724    1.000
    N5354    N        0.78513    0.60657    0.94474    1.000
    Si5355   Si       0.74076    0.60250    0.95860    1.000
    N5356    N        0.96252    0.61650    0.91631    1.000
    Si5357   Si       0.97740    0.63074    0.87551    1.000
    Si5358   Si       0.94621    0.65922    0.92028    1.000
    N5359    N        0.91135    0.65801    0.89576    1.000
    N5360    N        0.75244    0.65411    0.86998    1.000
    N5361    N        0.85103    0.68491    0.09065    1.000
    Si5362   Si       0.81718    0.68083    0.06346    1.000
    N5363    N        0.75197    0.67547    0.00573    1.000
    N5364    N        0.77673    0.67510    0.07566    1.000
    N5365    N        0.81783    0.70540    0.02771    1.000
    Si5366   Si       0.75524    0.68622    0.11238    1.000
    Si5367   Si       0.79625    0.68231    0.99662    1.000
    Si5368   Si       0.74234    0.67608    0.04856    1.000
    N5369    N        0.96831    0.70110    0.01965    1.000
    N5370    N        0.95777    0.67946    0.07985    1.000
    N5371    N        0.90967    0.67548    0.01524    1.000
    N5372    N        0.85101    0.70201    0.22576    1.000
    Si5373   Si       0.76401    0.69520    0.17489    1.000
    N5374    N        0.78664    0.67285    0.14373    1.000
    N5375    N        0.85358    0.67613    0.16402    1.000
    Si5376   Si       0.81053    0.69824    0.24046    1.000
    N5377    N        0.91354    0.68116    0.19637    1.000
    Si5378   Si       0.87233    0.67299    0.20280    1.000
    Si5379   Si       0.86658    0.69983    0.12802    1.000
    N5380    N        0.97402    0.69438    0.15796    1.000
    Si5381   Si       0.93467    0.71061    0.21874    1.000
    N5382    N        0.90888    0.69410    0.12757    1.000
    Si5383   Si       0.93249    0.67772    0.15810    1.000
    Si5384   Si       0.98918    0.66394    0.24224    1.000
    N5385    N        0.85045    0.69280    0.32431    1.000
    N5386    N        0.77598    0.67205    0.31563    1.000
    Si5387   Si       0.80877    0.70301    0.31663    1.000
    N5388    N        0.79952    0.65598    0.24899    1.000
    N5389    N        0.90418    0.67909    0.49223    1.000
    Si5390   Si       0.92183    0.66039    0.35460    1.000
    Si5391   Si       0.93048    0.68954    0.28615    1.000
    N5392    N        0.95015    0.67326    0.32415    1.000
    N5393    N        0.89627    0.66388    0.28511    1.000
    N5394    N        0.95577    0.69141    0.24999    1.000
    N5395    N        0.90563    0.69984    0.36292    1.000
    N5396    N        0.92479    0.69103    0.43157    1.000
    N5397    N        0.76821    0.68213    0.38247    1.000
    Si5398   Si       0.77343    0.66533    0.42408    1.000
    N5399    N        0.78155    0.70273    0.44621    1.000
    N5400    N        0.84841    0.69732    0.45234    1.000
    Si5401   Si       0.86262    0.68583    0.49218    1.000
    N5402    N        0.97760    0.66357    0.48744    1.000
    Si5403   Si       0.91510    0.71277    0.46781    1.000
    Si5404   Si       0.92720    0.71600    0.39713    1.000
    N5405    N        0.82066    0.68785    0.57914    1.000
    N5406    N        0.75115    0.68902    0.56806    1.000
    Si5407   Si       0.78612    0.66112    0.56912    1.000
    Si5408   Si       0.85889    0.67890    0.56064    1.000
    Si5409   Si       0.74391    0.67931    0.52281    1.000
    N5410    N        0.86083    0.70924    0.52783    1.000
    Si5411   Si       0.81283    0.71042    0.61559    1.000
    N5412    N        0.89104    0.68283    0.59078    1.000
    N5413    N        0.94368    0.69453    0.54503    1.000
    Si5414   Si       0.93374    0.68194    0.58428    1.000
    Si5415   Si       0.93950    0.66436    0.51158    1.000
    N5416    N        0.95377    0.70753    0.61207    1.000
    N5417    N        0.83057    0.68139    0.64776    1.000
    Si5418   Si       0.82582    0.69256    0.69017    1.000
    N5419    N        0.81267    0.66050    0.71450    1.000
    N5420    N        0.74336    0.66909    0.67700    1.000
    N5421    N        0.96837    0.65648    0.66096    1.000
    Si5422   Si       0.86987    0.69412    0.62763    1.000
    N5423    N        0.90147    0.70563    0.65318    1.000
    Si5424   Si       0.89913    0.69181    0.69465    1.000
    N5425    N        0.93391    0.70546    0.71754    1.000
    Si5426   Si       0.98281    0.68835    0.63528    1.000
    N5427    N        0.97457    0.65278    0.73585    1.000
    Si5428   Si       0.84968    0.68291    0.83999    1.000
    Si5429   Si       0.77224    0.69910    0.77568    1.000
    N5430    N        0.85203    0.67304    0.76935    1.000
    N5431    N        0.81022    0.66835    0.84907    1.000
    N5432    N        0.77302    0.65821    0.79004    1.000
    N5433    N        0.73672    0.66794    0.93820    1.000
    Si5434   Si       0.95304    0.68721    0.75182    1.000
    N5435    N        0.97578    0.71020    0.77855    1.000
    Si5436   Si       0.83173    0.70193    0.93397    1.000
    Si5437   Si       0.78818    0.67238    0.88569    1.000
    N5438    N        0.81650    0.66118    0.91716    1.000
    N5439    N        0.79653    0.70509    0.96066    1.000
    Si5440   Si       0.75978    0.70632    0.93916    1.000
    N5441    N        0.77522    0.71092    0.89933    1.000
    Si5442   Si       0.96050    0.66125    0.99731    1.000
    N5443    N        0.97598    0.67057    0.88925    1.000
    N5444    N        0.87378    0.69221    0.94213    1.000
    N5445    N        0.86681    0.70640    0.87316    1.000
    Si5446   Si       0.90358    0.69163    0.97259    1.000
    N5447    N        0.94135    0.67070    0.95966    1.000
    Si5448   Si       0.89504    0.69727    0.90329    1.000
    Si5449   Si       0.82200    0.74952    0.02246    1.000
    N5450    N        0.84271    0.76233    0.05810    1.000
    Si5451   Si       0.87914    0.75609    0.08274    1.000
    N5452    N        0.90966    0.73081    0.06308    1.000
    N5453    N        0.94838    0.74944    0.11420    1.000
    Si5454   Si       0.93228    0.71235    0.09689    1.000
    Si5455   Si       0.92624    0.71464    0.02662    1.000
    Si5456   Si       0.79819    0.75971    0.20540    1.000
    N5457    N        0.83173    0.76579    0.23079    1.000
    N5458    N        0.74861    0.71984    0.14175    1.000
    N5459    N        0.78593    0.71707    0.20774    1.000
    N5460    N        0.81617    0.76669    0.16700    1.000
    Si5461   Si       0.85743    0.76713    0.15549    1.000
    Si5462   Si       0.86793    0.74123    0.22226    1.000
    N5463    N        0.94711    0.74204    0.19049    1.000
    N5464    N        0.90717    0.73581    0.24048    1.000
    N5465    N        0.86576    0.74261    0.12117    1.000
    Si5466   Si       0.96803    0.73763    0.15115    1.000
    N5467    N        0.88422    0.76552    0.18893    1.000
    N5468    N        0.79354    0.73323    0.34202    1.000
    Si5469   Si       0.82913    0.76199    0.27617    1.000
    N5470    N        0.81270    0.72089    0.27780    1.000
    N5471    N        0.87141    0.75847    0.35120    1.000
    Si5472   Si       0.91612    0.75971    0.27585    1.000
    N5473    N        0.91894    0.72843    0.30597    1.000
    Si5474   Si       0.88364    0.72004    0.33135    1.000
    Si5475   Si       0.95653    0.71808    0.33713    1.000
    N5476    N        0.87072    0.76682    0.28592    1.000
    Si5477   Si       0.74624    0.72361    0.46345    1.000
    Si5478   Si       0.81822    0.72485    0.44256    1.000
    N5479    N        0.82235    0.73359    0.39947    1.000
    N5480    N        0.75877    0.75318    0.39947    1.000
    N5481    N        0.80435    0.76355    0.45803    1.000
    Si5482   Si       0.78407    0.72220    0.38165    1.000
    Si5483   Si       0.84395    0.76683    0.38439    1.000
    N5484    N        0.95189    0.72595    0.48665    1.000
    N5485    N        0.96549    0.71863    0.37916    1.000
    N5486    N        0.92083    0.75452    0.41334    1.000
    N5487    N        0.88556    0.74612    0.47258    1.000
    N5488    N        0.73674    0.76744    0.45794    1.000
    N5489    N        0.96605    0.77417    0.35033    1.000
    N5490    N        0.75310    0.71831    0.50540    1.000
    Si5491   Si       0.74621    0.72318    0.59224    1.000
    Si5492   Si       0.74002    0.75900    0.52331    1.000
    Si5493   Si       0.87129    0.74967    0.51592    1.000
    N5494    N        0.96638    0.76079    0.56052    1.000
    N5495    N        0.91127    0.76028    0.60952    1.000
    Si5496   Si       0.96402    0.73006    0.52921    1.000
    N5497    N        0.90173    0.77212    0.53663    1.000
    Si5498   Si       0.92677    0.77258    0.57339    1.000
    N5499    N        0.84951    0.73220    0.61467    1.000
    N5500    N        0.77660    0.73341    0.62075    1.000
    N5501    N        0.79555    0.72581    0.68934    1.000
    Si5502   Si       0.79820    0.75042    0.72682    1.000
    Si5503   Si       0.77011    0.74640    0.66171    1.000
    Si5504   Si       0.92990    0.73278    0.63773    1.000
    N5505    N        0.95342    0.75119    0.66763    1.000
    Si5506   Si       0.86835    0.75554    0.70086    1.000
    N5507    N        0.97701    0.76298    0.73375    1.000
    Si5508   Si       0.94404    0.74756    0.70964    1.000
    N5509    N        0.90518    0.76562    0.72060    1.000
    N5510    N        0.86238    0.71389    0.70279    1.000
    Si5511   Si       0.80067    0.74306    0.81772    1.000
    N5512    N        0.81134    0.75780    0.85975    1.000
    N5513    N        0.80449    0.72469    0.76040    1.000
    N5514    N        0.76472    0.71827    0.81470    1.000
    N5515    N        0.83529    0.71877    0.81570    1.000
    N5516    N        0.74203    0.75901    0.86808    1.000
    Si5517   Si       0.84569    0.71309    0.77255    1.000
    N5518    N        0.88138    0.73561    0.77125    1.000
    Si5519   Si       0.97301    0.75308    0.77776    1.000
    Si5520   Si       0.91306    0.76912    0.90717    1.000
    Si5521   Si       0.81926    0.77273    0.94551    1.000
    Si5522   Si       0.85098    0.74670    0.87590    1.000
    N5523    N        0.83690    0.76343    0.98430    1.000
    Si5524   Si       0.77975    0.75247    0.88969    1.000
    N5525    N        0.83701    0.74128    0.91793    1.000
    Si5526   Si       0.96744    0.74155    0.92308    1.000
    N5527    N        0.98144    0.74091    0.96275    1.000
    Si5528   Si       0.88172    0.76594    0.98333    1.000
    N5529    N        0.92570    0.72657    0.91210    1.000
    N5530    N        0.90726    0.73241    0.98977    1.000
    N5531    N        0.78038    0.77361    0.92860    1.000
    N5532    N        0.78902    0.80024    0.10365    1.000
    Si5533   Si       0.81060    0.79109    0.06878    1.000
    Si5534   Si       0.74783    0.78817    0.02487    1.000
    Si5535   Si       0.74708    0.80972    0.09613    1.000
    N5536    N        0.74499    0.82231    0.05407    1.000
    N5537    N        0.83711    0.82659    0.06537    1.000
    N5538    N        0.78798    0.77496    0.03317    1.000
    N5539    N        0.88632    0.79414    0.01431    1.000
    N5540    N        0.89959    0.79484    0.08564    1.000
    Si5541   Si       0.94281    0.79059    0.09714    1.000
    N5542    N        0.96728    0.80294    0.06411    1.000
    Si5543   Si       0.87657    0.81548    0.05306    1.000
    N5544    N        0.94635    0.82319    0.99824    1.000
    Si5545   Si       0.80900    0.80390    0.14347    1.000
    N5546    N        0.76983    0.79204    0.21734    1.000
    N5547    N        0.85247    0.80761    0.14172    1.000
    N5548    N        0.95435    0.81634    0.13126    1.000
    Si5549   Si       0.92361    0.77679    0.21019    1.000
    Si5550   Si       0.97407    0.81920    0.17150    1.000
    N5551    N        0.93476    0.81631    0.19385    1.000
    Si5552   Si       0.90572    0.83097    0.99903    1.000
    N5553    N        0.80523    0.79023    0.30027    1.000
    N5554    N        0.74691    0.78847    0.34420    1.000
    Si5555   Si       0.78947    0.77769    0.33912    1.000
    Si5556   Si       0.80300    0.82963    0.28202    1.000
    Si5557   Si       0.88270    0.78817    0.32173    1.000
    Si5558   Si       0.94904    0.81396    0.34084    1.000
    N5559    N        0.92288    0.80181    0.30653    1.000
    Si5560   Si       0.93730    0.82186    0.27066    1.000
    N5561    N        0.87273    0.82436    0.34392    1.000
    N5562    N        0.94523    0.78396    0.24986    1.000
    Si5563   Si       0.88701    0.82182    0.38474    1.000
    N5564    N        0.81276    0.79470    0.37142    1.000
    N5565    N        0.77086    0.81763    0.42095    1.000
    N5566    N        0.81771    0.82459    0.47909    1.000
    Si5567   Si       0.77209    0.77656    0.43372    1.000
    Si5568   Si       0.89439    0.77732    0.44194    1.000
    Si5569   Si       0.95070    0.77996    0.39273    1.000
    N5570    N        0.86717    0.79334    0.41151    1.000
    N5571    N        0.98397    0.77818    0.41756    1.000
    N5572    N        0.91103    0.81440    0.45468    1.000
    N5573    N        0.92721    0.81390    0.38081    1.000
    Si5574   Si       0.80770    0.78586    0.49281    1.000
    N5575    N        0.77025    0.78954    0.51563    1.000
    Si5576   Si       0.84226    0.80639    0.55195    1.000
    N5577    N        0.85396    0.79813    0.59246    1.000
    Si5578   Si       0.76761    0.82425    0.54181    1.000
    N5579    N        0.80516    0.82690    0.56367    1.000
    N5580    N        0.83723    0.77586    0.52201    1.000
    N5581    N        0.86974    0.78072    0.66228    1.000
    Si5582   Si       0.86923    0.76877    0.61961    1.000
    N5583    N        0.92381    0.81488    0.57504    1.000
    Si5584   Si       0.90952    0.81541    0.53385    1.000
    N5585    N        0.94710    0.82690    0.51436    1.000
    N5586    N        0.82154    0.83097    0.64558    1.000
    N5587    N        0.83406    0.77383    0.72164    1.000
    Si5588   Si       0.85840    0.82220    0.66634    1.000
    N5589    N        0.76380    0.77663    0.73655    1.000
    Si5590   Si       0.84046    0.81306    0.73837    1.000
    N5591    N        0.77059    0.78992    0.66789    1.000
    Si5592   Si       0.78344    0.83134    0.66254    1.000
    Si5593   Si       0.80712    0.80041    0.84441    1.000
    Si5594   Si       0.77478    0.80195    0.77021    1.000
    N5595    N        0.79662    0.78484    0.80450    1.000
    N5596    N        0.83855    0.82834    0.85324    1.000
    N5597    N        0.80323    0.82866    0.75195    1.000
    Si5598   Si       0.87645    0.82000    0.93098    1.000
    Si5599   Si       0.87770    0.81665    0.86240    1.000
    N5600    N        0.87443    0.80953    0.76572    1.000
    N5601    N        0.96727    0.81337    0.84447    1.000
    Si5602   Si       0.93944    0.81019    0.81178    1.000
    N5603    N        0.89995    0.82149    0.82690    1.000
    Si5604   Si       0.89961    0.77347    0.76442    1.000
    Si5605   Si       0.74307    0.77835    0.94772    1.000
    N5606    N        0.74758    0.80299    0.98339    1.000
    N5607    N        0.77848    0.81478    0.87423    1.000
    N5608    N        0.83463    0.81120    0.92888    1.000
    N5609    N        0.89756    0.78365    0.94521    1.000
    N5610    N        0.88188    0.77688    0.87783    1.000
    N5611    N        0.95328    0.78227    0.90760    1.000
    Si5612   Si       0.98254    0.80564    0.88486    1.000
    N5613    N        0.93655    0.77569    0.78724    1.000
    N5614    N        0.81783    0.87146    0.01479    1.000
    Si5615   Si       0.82326    0.86771    0.05783    1.000
    Si5616   Si       0.74980    0.86349    0.04676    1.000
    N5617    N        0.74913    0.86909    0.00384    1.000
    N5618    N        0.78420    0.87892    0.07322    1.000
    N5619    N        0.89867    0.85145    0.03646    1.000
    N5620    N        0.96031    0.87395    0.04484    1.000
    Si5621   Si       0.97157    0.83289    0.03118    1.000
    N5622    N        0.93052    0.88038    0.11822    1.000
    Si5623   Si       0.90702    0.84883    0.20789    1.000
    Si5624   Si       0.77747    0.83437    0.20667    1.000
    Si5625   Si       0.84833    0.84433    0.16741    1.000
    N5626    N        0.80566    0.83769    0.17177    1.000
    N5627    N        0.86168    0.87647    0.14427    1.000
    N5628    N        0.79901    0.84862    0.24189    1.000
    N5629    N        0.74055    0.85264    0.18933    1.000
    N5630    N        0.86338    0.84256    0.20719    1.000
    Si5631   Si       0.84443    0.85379    0.24363    1.000
    N5632    N        0.91216    0.88801    0.18939    1.000
    N5633    N        0.97850    0.86466    0.16997    1.000
    Si5634   Si       0.96698    0.85824    0.12649    1.000
    Si5635   Si       0.92115    0.88891    0.03031    1.000
    N5636    N        0.77959    0.85894    0.30241    1.000
    Si5637   Si       0.79389    0.87970    0.33672    1.000
    N5638    N        0.83527    0.87882    0.34966    1.000
    N5639    N        0.84486    0.84123    0.28554    1.000
    N5640    N        0.77156    0.84890    0.36148    1.000
    Si5641   Si       0.77551    0.88523    0.26127    1.000
    Si5642   Si       0.74608    0.83999    0.32791    1.000
    Si5643   Si       0.86195    0.85859    0.32178    1.000
    N5644    N        0.97086    0.85001    0.34042    1.000
    N5645    N        0.90886    0.84925    0.25255    1.000
    N5646    N        0.97557    0.83925    0.25902    1.000
    Si5647   Si       0.94827    0.83515    0.47193    1.000
    Si5648   Si       0.89680    0.88733    0.27019    1.000
    N5649    N        0.73951    0.88353    0.41280    1.000
    Si5650   Si       0.82132    0.85734    0.45539    1.000
    N5651    N        0.82138    0.85741    0.41126    1.000
    Si5652   Si       0.84925    0.88232    0.38991    1.000
    N5653    N        0.86137    0.87533    0.46705    1.000
    N5654    N        0.79427    0.88924    0.46579    1.000
    N5655    N        0.88566    0.86113    0.40298    1.000
    Si5656   Si       0.89371    0.85455    0.44467    1.000
    N5657    N        0.92930    0.87343    0.46175    1.000
    Si5658   Si       0.79769    0.82976    0.39013    1.000
    N5659    N        0.76234    0.86325    0.52249    1.000
    N5660    N        0.84403    0.87074    0.59678    1.000
    Si5661   Si       0.86498    0.87440    0.51180    1.000
    N5662    N        0.91844    0.87829    0.59633    1.000
    Si5663   Si       0.97681    0.84681    0.53998    1.000
    Si5664   Si       0.94275    0.84139    0.60218    1.000
    N5665    N        0.96332    0.88629    0.53700    1.000
    N5666    N        0.86972    0.83447    0.53116    1.000
    N5667    N        0.98203    0.84424    0.58280    1.000
    Si5668   Si       0.92879    0.85642    0.66881    1.000
    N5669    N        0.78024    0.86028    0.69398    1.000
    Si5670   Si       0.85080    0.88010    0.69582    1.000
    N5671    N        0.74952    0.84339    0.63693    1.000
    N5672    N        0.85281    0.83691    0.70539    1.000
    Si5673   Si       0.79153    0.86568    0.73517    1.000
    N5674    N        0.93313    0.84472    0.71018    1.000
    N5675    N        0.88852    0.85178    0.65219    1.000
    Si5676   Si       0.88157    0.88208    0.62026    1.000
    N5677    N        0.95581    0.83557    0.64315    1.000
    Si5678   Si       0.82453    0.83227    0.60218    1.000
    Si5679   Si       0.83210    0.87129    0.86117    1.000
    N5680    N        0.80250    0.88612    0.83450    1.000
    N5681    N        0.75513    0.88555    0.75228    1.000
    N5682    N        0.87319    0.87858    0.78467    1.000
    Si5683   Si       0.89230    0.84126    0.78695    1.000
    N5684    N        0.93461    0.84271    0.78028    1.000
    Si5685   Si       0.95570    0.85175    0.74477    1.000
    N5686    N        0.98942    0.84494    0.89943    1.000
    N5687    N        0.81593    0.87044    0.89984    1.000
    N5688    N        0.77126    0.84923    0.94075    1.000
    Si5689   Si       0.74125    0.84357    0.97081    1.000
    Si5690   Si       0.90659    0.88077    0.95274    1.000
    N5691    N        0.89410    0.83962    0.89549    1.000
    Si5692   Si       0.89784    0.88313    0.88600    1.000
    N5693    N        0.88631    0.84603    0.96490    1.000
    Si5694   Si       0.96837    0.88375    0.89941    1.000
    Si5695   Si       0.79851    0.82935    0.91118    1.000
    Si5696   Si       0.77609    0.91664    0.09697    1.000
    N5697    N        0.76945    0.93041    0.01361    1.000
    N5698    N        0.84032    0.93409    0.01890    1.000
    N5699    N        0.84832    0.89793    0.07454    1.000
    Si5700   Si       0.80727    0.91072    0.00139    1.000
    Si5701   Si       0.85068    0.90893    0.11667    1.000
    Si5702   Si       0.86550    0.93284    0.05426    1.000
    N5703    N        0.90931    0.92152    0.05523    1.000
    Si5704   Si       0.92689    0.91800    0.09527    1.000
    N5705    N        0.97249    0.92580    0.09021    1.000
    Si5706   Si       0.90218    0.89219    0.14887    1.000
    N5707    N        0.81210    0.92673    0.11982    1.000
    N5708    N        0.77828    0.90492    0.21831    1.000
    Si5709   Si       0.74591    0.93849    0.15873    1.000
    N5710    N        0.74500    0.90957    0.12680    1.000
    N5711    N        0.89319    0.92844    0.12269    1.000
    Si5712   Si       0.92486    0.92381    0.21149    1.000
    N5713    N        0.95778    0.93646    0.18453    1.000
    Si5714   Si       0.78697    0.94632    0.21681    1.000
    N5715    N        0.79722    0.92077    0.27909    1.000
    Si5716   Si       0.83706    0.93104    0.26559    1.000
    N5717    N        0.77160    0.91315    0.35509    1.000
    N5718    N        0.85560    0.89429    0.25201    1.000
    N5719    N        0.92815    0.91355    0.25303    1.000
    Si5720   Si       0.88930    0.93234    0.32751    1.000
    Si5721   Si       0.95343    0.93282    0.28106    1.000
    N5722    N        0.97274    0.92318    0.36189    1.000
    N5723    N        0.98045    0.90333    0.29224    1.000
    Si5724   Si       0.98441    0.89320    0.33149    1.000
    N5725    N        0.84645    0.92001    0.41301    1.000
    Si5726   Si       0.75906    0.90621    0.44545    1.000
    Si5727   Si       0.85191    0.91760    0.45541    1.000
    N5728    N        0.83582    0.94233    0.48783    1.000
    N5729    N        0.77133    0.94827    0.44458    1.000
    N5730    N        0.89255    0.93697    0.45398    1.000
    N5731    N        0.89808    0.93198    0.37227    1.000
    Si5732   Si       0.94055    0.93675    0.38496    1.000
    Si5733   Si       0.93008    0.91611    0.45907    1.000
    N5734    N        0.95619    0.92908    0.42549    1.000
    N5735    N        0.94713    0.93709    0.49447    1.000
    N5736    N        0.89059    0.89019    0.31376    1.000
    N5737    N        0.77328    0.93449    0.51179    1.000
    N5738    N        0.78990    0.91545    0.57486    1.000
    Si5739   Si       0.83169    0.90265    0.57235    1.000
    Si5740   Si       0.77633    0.93373    0.61300    1.000
    Si5741   Si       0.79000    0.89372    0.50956    1.000
    N5742    N        0.88174    0.92241    0.63376    1.000
    N5743    N        0.83031    0.89342    0.52841    1.000
    N5744    N        0.86104    0.93373    0.57304    1.000
    N5745    N        0.93216    0.93897    0.56279    1.000
    N5746    N        0.89714    0.89990    0.52597    1.000
    Si5747   Si       0.92697    0.89371    0.55819    1.000
    Si5748   Si       0.98177    0.91659    0.51499    1.000
    Si5749   Si       0.91440    0.94036    0.52284    1.000
    Si5750   Si       0.90067    0.94537    0.59862    1.000
    N5751    N        0.77658    0.93706    0.70927    1.000
    Si5752   Si       0.78498    0.90343    0.68144    1.000
    Si5753   Si       0.74614    0.92719    0.74058    1.000
    N5754    N        0.82477    0.90096    0.66746    1.000
    Si5755   Si       0.84346    0.93671    0.65192    1.000
    N5756    N        0.76161    0.91150    0.64528    1.000
    N5757    N        0.94148    0.89840    0.66631    1.000
    Si5758   Si       0.98269    0.91132    0.66686    1.000
    N5759    N        0.88346    0.90870    0.69660    1.000
    Si5760   Si       0.91294    0.93166    0.66507    1.000
    Si5761   Si       0.87746    0.95164    0.71209    1.000
    N5762    N        0.93204    0.95425    0.62878    1.000
    N5763    N        0.82693    0.88926    0.73107    1.000
    N5764    N        0.82157    0.93212    0.78648    1.000
    Si5765   Si       0.84759    0.90562    0.76542    1.000
    N5766    N        0.76241    0.93285    0.83208    1.000
    Si5767   Si       0.80537    0.92863    0.82640    1.000
    Si5768   Si       0.76142    0.89346    0.84644    1.000
    N5769    N        0.83116    0.94802    0.85503    1.000
    N5770    N        0.94295    0.93847    0.81166    1.000
    Si5771   Si       0.97136    0.91936    0.78546    1.000
    Si5772   Si       0.96414    0.92116    0.84731    1.000
    Si5773   Si       0.87444    0.93445    0.84532    1.000
    N5774    N        0.87133    0.93989    0.75303    1.000
    N5775    N        0.86838    0.89241    0.85512    1.000
    N5776    N        0.96845    0.89251    0.75059    1.000
    Si5777   Si       0.73991    0.91092    0.98718    1.000
    N5778    N        0.80569    0.90997    0.95782    1.000
    N5779    N        0.75477    0.89098    0.88909    1.000
    Si5780   Si       0.78297    0.88838    0.92591    1.000
    N5781    N        0.73756    0.91452    0.94410    1.000
    N5782    N        0.94525    0.89220    0.93502    1.000
    N5783    N        0.88325    0.90314    0.92353    1.000
    N5784    N        0.91827    0.90135    0.98943    1.000
    N5785    N        0.98367    0.93574    0.97445    1.000
    Si5786   Si       0.94375    0.92650    0.96377    1.000
    Si5787   Si       0.88747    0.94680    0.91923    1.000
    N5788    N        0.93775    0.89297    0.86941    1.000
    Si5789   Si       0.83393    0.97785    0.01138    1.000
    Si5790   Si       0.76834    0.96726    0.03865    1.000
    N5791    N        0.80598    0.98611    0.04552    1.000
    Si5792   Si       0.82840    0.99730    0.07832    1.000
    N5793    N        0.74656    0.99571    0.01411    1.000
    N5794    N        0.76068    0.95326    0.07815    1.000
    N5795    N        0.85961    0.96569    0.08381    1.000
    N5796    N        0.81077    0.00014    0.12000    1.000
    N5797    N        0.94590    0.98275    0.01170    1.000
    N5798    N        0.87454    0.99494    0.01032    1.000
    N5799    N        0.96024    0.99302    0.07789    1.000
    Si5800   Si       0.98435    0.96927    0.99924    1.000
    N5801    N        0.85042    0.96705    0.15915    1.000
    Si5802   Si       0.81011    0.96347    0.14293    1.000
    N5803    N        0.78314    0.95597    0.17395    1.000
    N5804    N        0.82733    0.95302    0.22783    1.000
    Si5805   Si       0.85711    0.97227    0.20268    1.000
    N5806    N        0.98215    0.99254    0.14552    1.000
    N5807    N        0.95232    0.00740    0.20335    1.000
    N5808    N        0.90679    0.00176    0.12449    1.000
    Si5809   Si       0.87777    0.96928    0.12417    1.000
    Si5810   Si       0.97274    0.97622    0.18426    1.000
    Si5811   Si       0.95124    0.00825    0.11856    1.000
    N5812    N        0.89549    0.95594    0.20903    1.000
    N5813    N        0.75801    0.96553    0.24467    1.000
    N5814    N        0.79167    0.97666    0.31756    1.000
    Si5815   Si       0.83730    0.98390    0.32607    1.000
    N5816    N        0.83171    0.95657    0.36122    1.000
    Si5817   Si       0.77198    0.95562    0.28484    1.000
    Si5818   Si       0.79025    0.95019    0.35534    1.000
    N5819    N        0.85910    0.95007    0.29782    1.000
    Si5820   Si       0.89158    0.97954    0.44710    1.000
    N5821    N        0.92396    0.95074    0.30765    1.000
    Si5822   Si       0.89013    0.98350    0.29625    1.000
    N5823    N        0.88103    0.98819    0.33914    1.000
    N5824    N        0.97340    0.96518    0.25747    1.000
    N5825    N        0.91325    0.00185    0.26501    1.000
    Si5826   Si       0.95044    0.00034    0.24754    1.000
    Si5827   Si       0.79421    0.95717    0.47973    1.000
    N5828    N        0.76940    0.97890    0.37999    1.000
    Si5829   Si       0.75180    0.97993    0.41934    1.000
    N5830    N        0.79679    0.00069    0.48920    1.000
    N5831    N        0.87746    0.99413    0.40652    1.000
    N5832    N        0.93192    0.99367    0.45699    1.000
    N5833    N        0.93982    0.98273    0.37936    1.000
    Si5834   Si       0.96130    0.97596    0.48306    1.000
    Si5835   Si       0.86337    0.95413    0.38990    1.000
    Si5836   Si       0.84111    0.97457    0.59278    1.000
    N5837    N        0.81950    0.97225    0.55251    1.000
    N5838    N        0.74855    0.95762    0.59012    1.000
    N5839    N        0.76681    0.99989    0.54905    1.000
    Si5840   Si       0.77699    0.95516    0.55349    1.000
    Si5841   Si       0.74011    0.00047    0.58427    1.000
    N5842    N        0.96096    0.99011    0.52442    1.000
    N5843    N        0.88636    0.97102    0.52550    1.000
    N5844    N        0.88155    0.98587    0.60600    1.000
    Si5845   Si       0.96918    0.96644    0.55982    1.000
    N5846    N        0.97824    0.99020    0.59482    1.000
    N5847    N        0.78495    0.00140    0.66857    1.000
    N5848    N        0.79757    0.99943    0.73592    1.000
    N5849    N        0.84129    0.96193    0.68963    1.000
    Si5850   Si       0.80099    0.97345    0.69866    1.000
    N5851    N        0.81671    0.95245    0.62172    1.000
    N5852    N        0.98381    0.95390    0.66881    1.000
    N5853    N        0.91222    0.96609    0.69178    1.000
    Si5854   Si       0.96703    0.97814    0.63530    1.000
    N5855    N        0.96966    0.99684    0.71946    1.000
    Si5856   Si       0.93475    0.00004    0.69351    1.000
    Si5857   Si       0.84953    0.94653    0.53037    1.000
    Si5858   Si       0.78330    0.98439    0.77709    1.000
    N5859    N        0.81727    0.99517    0.80153    1.000
    Si5860   Si       0.85179    0.96907    0.78106    1.000
    N5861    N        0.75260    0.95593    0.77373    1.000
    N5862    N        0.91479    0.95852    0.95167    1.000
    Si5863   Si       0.92109    0.97619    0.81081    1.000
    N5864    N        0.87909    0.96445    0.81444    1.000
    Si5865   Si       0.97214    0.99201    0.76107    1.000
    N5866    N        0.93147    0.99402    0.77155    1.000
    N5867    N        0.98087    0.96026    0.86204    1.000
    Si5868   Si       0.96878    0.00367    0.86323    1.000
    N5869    N        0.93172    0.00819    0.83974    1.000
    N5870    N        0.74212    0.98812    0.94515    1.000
    N5871    N        0.80337    0.97820    0.97738    1.000
    Si5872   Si       0.81947    0.96943    0.88950    1.000
    N5873    N        0.85062    0.96914    0.92154    1.000
    Si5874   Si       0.74834    0.95322    0.92053    1.000
    Si5875   Si       0.81762    0.95077    0.94597    1.000
    Si5876   Si       0.76834    0.00298    0.97678    1.000
    N5877    N        0.89832    0.94922    0.87800    1.000
    Si5878   Si       0.91083    0.98884    0.98625    1.000
    N5879    N        0.78940    0.95321    0.91373    1.000
