# CIF file generated by openbabel 3.1.1, see https://openbabel.org
data_I
_chemical_name_common '3.01-86.aims'
_cell_length_a 39.9176
_cell_length_b 39.9176
_cell_length_c 39.9176
_cell_angle_alpha 90
_cell_angle_beta 90
_cell_angle_gamma 90
loop_
    _atom_site_label
    _atom_site_type_symbol
    _atom_site_fract_x
    _atom_site_fract_y
    _atom_site_fract_z
    _atom_site_occupancy
    Si0      Si       0.01662    0.07823    0.01320    1.000
    N1       N        0.02800    0.08784    0.11213    1.000
    Si2      Si       0.01048    0.12523    0.09383    1.000
    N3       N        0.98951    0.05228    0.03483    1.000
    Si4      Si       0.00870    0.20796    0.00942    1.000
    N5       N        0.01237    0.16362    0.01064    1.000
    N6       N        0.04142    0.21329    0.03812    1.000
    Si7      Si       0.04805    0.17013    0.03858    1.000
    N8       N        0.04563    0.14020    0.07135    1.000
    Si9      Si       0.99960    0.08077    0.23008    1.000
    N10      N        0.02061    0.03510    0.14790    1.000
    N11      N        0.00303    0.11889    0.21168    1.000
    N12      N        0.03897    0.05884    0.22245    1.000
    Si13     Si       0.99409    0.06611    0.13065    1.000
    Si14     Si       0.98716    0.13002    0.16844    1.000
    N15      N        0.99661    0.14524    0.12981    1.000
    N16      N        0.01042    0.21001    0.13396    1.000
    N17      N        0.03750    0.18139    0.19348    1.000
    N18      N        0.00203    0.23273    0.22652    1.000
    Si19     Si       0.03602    0.14715    0.22257    1.000
    Si20     Si       0.03820    0.20696    0.23056    1.000
    Si21     Si       0.02519    0.25175    0.13095    1.000
    Si22     Si       0.04691    0.19740    0.15451    1.000
    Si23     Si       0.01857    0.06176    0.30920    1.000
    N24      N        0.02854    0.08977    0.34050    1.000
    N25      N        0.99714    0.08229    0.27410    1.000
    N26      N        0.99629    0.02806    0.32013    1.000
    Si27     Si       0.00180    0.12341    0.34885    1.000
    Si28     Si       0.04182    0.02731    0.25095    1.000
    N29      N        0.00065    0.01098    0.25814    1.000
    Si30     Si       0.00837    0.17294    0.29382    1.000
    N31      N        0.01837    0.22439    0.35626    1.000
    Si32     Si       0.04136    0.18755    0.35675    1.000
    N33      N        0.00705    0.16786    0.25155    1.000
    N34      N        0.04589    0.17727    0.31463    1.000
    Si35     Si       0.03720    0.07130    0.41372    1.000
    Si36     Si       0.03046    0.10723    0.47384    1.000
    N37      N        0.02899    0.03146    0.39903    1.000
    N38      N        0.00728    0.10317    0.41844    1.000
    N39      N        0.99226    0.12714    0.49155    1.000
    N40      N        0.02300    0.15230    0.37352    1.000
    N41      N        0.00311    0.20736    0.47851    1.000
    N42      N        0.04717    0.14001    0.45160    1.000
    Si43     Si       0.04621    0.21223    0.48235    1.000
    Si44     Si       0.02261    0.14464    0.41537    1.000
    Si45     Si       0.00982    0.12302    0.53240    1.000
    N46      N        0.01590    0.02442    0.52065    1.000
    N47      N        0.02651    0.01587    0.58762    1.000
    N48      N        0.04342    0.10382    0.51568    1.000
    Si49     Si       0.98980    0.01147    0.61523    1.000
    Si50     Si       0.00578    0.12921    0.59749    1.000
    N51      N        0.02649    0.14896    0.56146    1.000
    N52      N        0.02603    0.21316    0.58494    1.000
    Si53     Si       0.04888    0.18581    0.56143    1.000
    Si54     Si       0.02905    0.25563    0.57424    1.000
    N55      N        0.01925    0.10994    0.63607    1.000
    Si56     Si       0.02930    0.06971    0.65032    1.000
    N57      N        0.00292    0.03345    0.65103    1.000
    N58      N        0.03619    0.06991    0.69314    1.000
    Si59     Si       0.00261    0.08353    0.72087    1.000
    Si60     Si       0.00978    0.01930    0.69130    1.000
    N61      N        0.99515    0.03889    0.72942    1.000
    N62      N        0.01414    0.17291    0.68084    1.000
    Si63     Si       0.03883    0.18789    0.71454    1.000
    Si64     Si       0.02364    0.13138    0.67463    1.000
    Si65     Si       0.04593    0.25154    0.71515    1.000
    N66      N        0.01112    0.22200    0.72490    1.000
    N67      N        0.01123    0.04396    0.80051    1.000
    N68      N        0.00660    0.06876    0.86090    1.000
    Si69     Si       0.03963    0.03905    0.83478    1.000
    N70      N        0.02770    0.09621    0.75278    1.000
    Si71     Si       0.00412    0.01551    0.76827    1.000
    N72      N        0.02359    0.00868    0.86308    1.000
    Si73     Si       0.03028    0.18010    0.79302    1.000
    Si74     Si       0.04011    0.25141    0.83137    1.000
    N75      N        0.98994    0.19716    0.78652    1.000
    N76      N        0.03915    0.14261    0.81344    1.000
    N77      N        0.04532    0.17155    0.75287    1.000
    N78      N        0.99250    0.10516    0.98788    1.000
    N79      N        0.04294    0.12078    0.87918    1.000
    Si80     Si       0.02278    0.10068    0.95443    1.000
    Si81     Si       0.00345    0.10309    0.88595    1.000
    Si82     Si       0.01097    0.03984    0.89447    1.000
    N83      N        0.00548    0.07848    0.92193    1.000
    Si84     Si       0.03209    0.03096    0.96048    1.000
    N85      N        0.04305    0.06935    0.97825    1.000
    N86      N        0.04704    0.02910    0.91955    1.000
    N87      N        0.98854    0.02351    0.97274    1.000
    N88      N        0.04585    0.13776    0.94834    1.000
    N89      N        0.02313    0.18192    0.90875    1.000
    Si90     Si       0.00587    0.21263    0.88525    1.000
    Si91     Si       0.01766    0.17315    0.95180    1.000
    N92      N        0.04085    0.23537    0.87411    1.000
    N93      N        0.03171    0.20895    0.97196    1.000
    N94      N        0.01573    0.29423    0.02510    1.000
    Si95     Si       0.02027    0.35809    0.07524    1.000
    Si96     Si       0.01107    0.28552    0.06872    1.000
    N97      N        0.99511    0.32276    0.08271    1.000
    N98      N        0.04104    0.27220    0.09622    1.000
    N99      N        0.03364    0.37484    0.11298    1.000
    N100     N        0.00030    0.39108    0.05109    1.000
    N101     N        0.02330    0.45354    0.02271    1.000
    Si102    Si       0.03282    0.41304    0.03190    1.000
    N103     N        0.04756    0.44946    0.11182    1.000
    Si104    Si       0.04756    0.49032    0.01554    1.000
    N105     N        0.05001    0.39067    0.99999    1.000
    Si106    Si       0.99158    0.46935    0.99639    1.000
    Si107    Si       0.03594    0.49270    0.12307    1.000
    N108     N        0.02088    0.33949    0.17990    1.000
    Si109    Si       0.02794    0.33346    0.22236    1.000
    N110     N        0.99958    0.27670    0.15744    1.000
    Si111    Si       0.04275    0.36833    0.15466    1.000
    N112     N        0.99427    0.34970    0.24508    1.000
    N113     N        0.03225    0.50653    0.16517    1.000
    N114     N        0.02755    0.40770    0.16687    1.000
    N115     N        0.01883    0.41066    0.23567    1.000
    Si116    Si       0.02205    0.41586    0.12532    1.000
    N117     N        0.99199    0.47879    0.12830    1.000
    Si118    Si       0.99931    0.42084    0.19718    1.000
    N119     N        0.02162    0.32483    0.31733    1.000
    Si120    Si       0.04164    0.33023    0.35567    1.000
    Si121    Si       0.04485    0.25518    0.34276    1.000
    N122     N        0.04082    0.29736    0.24633    1.000
    N123     N        0.02297    0.45107    0.32806    1.000
    N124     N        0.00776    0.47841    0.26360    1.000
    Si125    Si       0.00862    0.44125    0.36749    1.000
    Si126    Si       0.99330    0.47248    0.30518    1.000
    Si127    Si       0.98986    0.39147    0.26013    1.000
    Si128    Si       0.04714    0.49459    0.25833    1.000
    N129     N        0.99557    0.33766    0.45684    1.000
    Si130    Si       0.03507    0.28598    0.47848    1.000
    Si131    Si       0.02978    0.35710    0.47606    1.000
    Si132    Si       0.00641    0.31777    0.41886    1.000
    N133     N        0.01673    0.34639    0.38714    1.000
    N134     N        0.04221    0.29679    0.43622    1.000
    N135     N        0.99251    0.27369    0.48174    1.000
    Si136    Si       0.02355    0.38151    0.41075    1.000
    N137     N        0.01683    0.46144    0.46091    1.000
    N138     N        0.99255    0.47647    0.38772    1.000
    N139     N        0.03858    0.41628    0.38775    1.000
    Si140    Si       0.99632    0.49759    0.47408    1.000
    N141     N        0.01822    0.39742    0.49293    1.000
    Si142    Si       0.99279    0.42227    0.46660    1.000
    N143     N        0.03098    0.32479    0.57248    1.000
    N144     N        0.02304    0.27272    0.61356    1.000
    N145     N        0.04246    0.32376    0.50106    1.000
    Si146    Si       0.04282    0.31389    0.61312    1.000
    N147     N        0.99074    0.26943    0.55632    1.000
    Si148    Si       0.99017    0.31267    0.56135    1.000
    Si149    Si       0.04240    0.41359    0.52497    1.000
    Si150    Si       0.04213    0.49865    0.54350    1.000
    N151     N        0.01936    0.48792    0.58169    1.000
    N152     N        0.00844    0.41493    0.55368    1.000
    Si153    Si       0.00315    0.41592    0.59648    1.000
    Si154    Si       0.03859    0.46948    0.61715    1.000
    N155     N        0.04429    0.42716    0.61052    1.000
    Si156    Si       0.00131    0.26618    0.65206    1.000
    N157     N        0.00118    0.32388    0.71854    1.000
    N158     N        0.03169    0.27430    0.68213    1.000
    N159     N        0.02303    0.33378    0.64631    1.000
    Si160    Si       0.03187    0.31751    0.68805    1.000
    Si161    Si       0.03765    0.37661    0.64052    1.000
    N162     N        0.04581    0.39675    0.67576    1.000
    Si163    Si       0.03516    0.43857    0.68650    1.000
    N164     N        0.99995    0.38221    0.62033    1.000
    N165     N        0.00042    0.43608    0.71150    1.000
    N166     N        0.02121    0.46680    0.65696    1.000
    Si167    Si       0.99553    0.50074    0.67081    1.000
    N168     N        0.01821    0.32187    0.84468    1.000
    Si169    Si       0.99869    0.34075    0.76121    1.000
    N170     N        0.03794    0.34295    0.77901    1.000
    N171     N        0.99745    0.25933    0.82773    1.000
    Si172    Si       0.01003    0.42765    0.82509    1.000
    N173     N        0.02065    0.46887    0.83687    1.000
    N174     N        0.99635    0.43792    0.78313    1.000
    Si175    Si       0.00638    0.41485    0.74874    1.000
    Si176    Si       0.99419    0.26840    0.93588    1.000
    N177     N        0.03542    0.27077    0.94921    1.000
    N178     N        0.00394    0.32617    0.96231    1.000
    Si179    Si       0.01972    0.32818    0.88848    1.000
    N180     N        0.99615    0.36311    0.90081    1.000
    Si181    Si       0.04451    0.31217    0.95302    1.000
    N182     N        0.99050    0.29643    0.90533    1.000
    N183     N        0.03203    0.49422    0.92328    1.000
    Si184    Si       0.00008    0.46615    0.92154    1.000
    N185     N        0.01807    0.43036    0.89976    1.000
    N186     N        0.01559    0.50703    0.99025    1.000
    N187     N        0.02224    0.52883    0.09846    1.000
    Si188    Si       0.03433    0.54967    0.06173    1.000
    N189     N        0.00782    0.56484    0.03216    1.000
    Si190    Si       0.04090    0.61332    0.10719    1.000
    N191     N        0.00488    0.74846    0.01890    1.000
    Si192    Si       0.02021    0.71351    0.09008    1.000
    Si193    Si       0.02766    0.71095    0.01659    1.000
    N194     N        0.00721    0.64020    0.11570    1.000
    N195     N        0.04310    0.70352    0.05614    1.000
    N196     N        0.01042    0.67508    0.00100    1.000
    Si197    Si       0.99778    0.55600    0.12313    1.000
    N198     N        0.03705    0.56328    0.20789    1.000
    Si199    Si       0.02977    0.60200    0.17904    1.000
    N200     N        0.02991    0.58535    0.13803    1.000
    Si201    Si       0.99452    0.56112    0.21771    1.000
    N202     N        0.02419    0.75566    0.24126    1.000
    Si203    Si       0.03523    0.71246    0.24662    1.000
    N204     N        0.99564    0.69804    0.22865    1.000
    N205     N        0.03368    0.69826    0.12845    1.000
    N206     N        0.02433    0.64796    0.18286    1.000
    Si207    Si       0.00738    0.66926    0.14979    1.000
    Si208    Si       0.00799    0.65385    0.22625    1.000
    Si209    Si       0.00436    0.54710    0.28946    1.000
    N210     N        0.00599    0.57995    0.31938    1.000
    Si211    Si       0.99652    0.60920    0.28570    1.000
    N212     N        0.04294    0.53582    0.27539    1.000
    N213     N        0.02244    0.63013    0.25969    1.000
    Si214    Si       0.98934    0.57450    0.35825    1.000
    N215     N        0.02340    0.67313    0.33963    1.000
    Si216    Si       0.99829    0.68687    0.37018    1.000
    Si217    Si       0.01699    0.51047    0.40007    1.000
    N218     N        0.01909    0.55019    0.38100    1.000
    N219     N        0.00281    0.52406    0.43906    1.000
    N220     N        0.00196    0.60125    0.43426    1.000
    Si221    Si       0.03818    0.60604    0.45606    1.000
    N222     N        0.03816    0.58331    0.49316    1.000
    N223     N        0.01834    0.72436    0.38546    1.000
    Si224    Si       0.02204    0.70189    0.42520    1.000
    N225     N        0.00530    0.66643    0.40741    1.000
    N226     N        0.99645    0.71757    0.45496    1.000
    Si227    Si       0.02618    0.59851    0.56848    1.000
    Si228    Si       0.00755    0.55806    0.50799    1.000
    N229     N        0.99822    0.57792    0.54496    1.000
    N230     N        0.01695    0.51485    0.51075    1.000
    N231     N        0.00455    0.62960    0.58751    1.000
    Si232    Si       0.02744    0.72937    0.58862    1.000
    N233     N        0.03092    0.69000    0.57010    1.000
    Si234    Si       0.99577    0.66534    0.56273    1.000
    Si235    Si       0.00252    0.71307    0.49739    1.000
    N236     N        0.98639    0.75181    0.50811    1.000
    N237     N        0.98693    0.73936    0.60137    1.000
    N238     N        0.00818    0.52462    0.70478    1.000
    Si239    Si       0.02956    0.61695    0.67856    1.000
    Si240    Si       0.02416    0.55644    0.63010    1.000
    N241     N        0.01236    0.59482    0.64601    1.000
    N242     N        0.99123    0.52688    0.63510    1.000
    Si243    Si       0.04676    0.54766    0.70067    1.000
    Si244    Si       0.01689    0.71870    0.73393    1.000
    Si245    Si       0.02022    0.72199    0.65940    1.000
    N246     N        0.99525    0.63949    0.69328    1.000
    N247     N        0.03736    0.70388    0.69544    1.000
    N248     N        0.02473    0.58601    0.82468    1.000
    N249     N        0.01295    0.55337    0.76708    1.000
    N250     N        0.01040    0.62384    0.76410    1.000
    Si251    Si       0.00871    0.56853    0.86065    1.000
    N252     N        0.00264    0.52692    0.85012    1.000
    Si253    Si       0.99952    0.58909    0.78867    1.000
    Si254    Si       0.03891    0.50867    0.83350    1.000
    Si255    Si       0.02718    0.66964    0.84251    1.000
    Si256    Si       0.03558    0.66705    0.77062    1.000
    N257     N        0.99927    0.70209    0.83417    1.000
    N258     N        0.99638    0.68271    0.74872    1.000
    N259     N        0.99450    0.64679    0.85942    1.000
    Si260    Si       0.00612    0.54974    0.99073    1.000
    N261     N        0.03253    0.58220    0.89379    1.000
    N262     N        0.03984    0.55725    0.96457    1.000
    N263     N        0.01702    0.61883    0.95051    1.000
    Si264    Si       0.04646    0.58889    0.93423    1.000
    N265     N        0.03337    0.68224    0.93211    1.000
    Si266    Si       0.03061    0.65670    0.96592    1.000
    Si267    Si       0.04469    0.72391    0.94093    1.000
    Si268    Si       0.01898    0.83989    0.07405    1.000
    N269     N        0.00894    0.81699    0.03998    1.000
    Si270    Si       0.99583    0.77788    0.05123    1.000
    N271     N        0.04358    0.87344    0.06069    1.000
    N272     N        0.03973    0.81792    0.10599    1.000
    Si273    Si       0.01713    0.82897    0.99772    1.000
    N274     N        0.00714    0.75738    0.08890    1.000
    Si275    Si       0.02856    0.89330    0.02546    1.000
    N276     N        0.02658    0.94276    0.07501    1.000
    Si277    Si       0.99366    0.94351    0.04966    1.000
    N278     N        0.99369    0.97933    0.02123    1.000
    N279     N        0.04229    0.93426    0.01509    1.000
    Si280    Si       0.03015    0.93667    0.11691    1.000
    N281     N        0.98696    0.90033    0.03544    1.000
    Si282    Si       0.02110    0.78352    0.12319    1.000
    N283     N        0.02780    0.87458    0.17616    1.000
    Si284    Si       0.00805    0.99403    0.15477    1.000
    N285     N        0.04211    0.97320    0.13355    1.000
    Si286    Si       0.02902    0.96236    0.22412    1.000
    N287     N        0.00583    0.98658    0.19749    1.000
    N288     N        0.99105    0.92206    0.13038    1.000
    Si289    Si       0.99280    0.89584    0.16546    1.000
    Si290    Si       0.01648    0.81907    0.32654    1.000
    N291     N        0.99921    0.85898    0.33448    1.000
    N292     N        0.02333    0.79460    0.35977    1.000
    N293     N        0.00465    0.86221    0.25930    1.000
    Si294    Si       0.04386    0.84792    0.26378    1.000
    N295     N        0.98787    0.79972    0.29978    1.000
    Si296    Si       0.03153    0.88365    0.35244    1.000
    N297     N        0.03779    0.97442    0.34925    1.000
    Si298    Si       0.99921    0.98663    0.33673    1.000
    N299     N        0.02543    0.93025    0.25368    1.000
    Si300    Si       0.99599    0.90321    0.24263    1.000
    Si301    Si       0.98809    0.81368    0.42932    1.000
    N302     N        0.03260    0.81670    0.42999    1.000
    N303     N        0.04564    0.78212    0.48996    1.000
    Si304    Si       0.99904    0.76150    0.37345    1.000
    Si305    Si       0.04787    0.99252    0.38940    1.000
    N306     N        0.02981    0.96533    0.41810    1.000
    N307     N        0.01213    0.89696    0.39016    1.000
    Si308    Si       0.03890    0.92259    0.41267    1.000
    Si309    Si       0.01778    0.98419    0.45710    1.000
    N310     N        0.00633    0.95511    0.48855    1.000
    Si311    Si       0.03557    0.88605    0.48768    1.000
    N312     N        0.02645    0.85924    0.56877    1.000
    N313     N        0.00831    0.80505    0.60967    1.000
    Si314    Si       0.03167    0.81460    0.57228    1.000
    N315     N        0.00705    0.81235    0.53544    1.000
    N316     N        0.99659    0.87361    0.49841    1.000
    Si317    Si       0.00269    0.79073    0.49955    1.000
    Si318    Si       0.99507    0.85584    0.53972    1.000
    N319     N        0.03638    0.92329    0.59243    1.000
    Si320    Si       0.03374    0.95244    0.52422    1.000
    N321     N        0.99931    0.96284    0.54944    1.000
    N322     N        0.04176    0.90954    0.52617    1.000
    Si323    Si       0.99863    0.00639    0.55467    1.000
    Si324    Si       0.99724    0.93798    0.58903    1.000
    N325     N        0.03522    0.81400    0.74096    1.000
    N326     N        0.01965    0.83791    0.67196    1.000
    Si327    Si       0.00840    0.83204    0.71155    1.000
    N328     N        0.01329    0.76673    0.66791    1.000
    Si329    Si       0.02970    0.80331    0.64837    1.000
    N330     N        0.02148    0.87634    0.72308    1.000
    Si331    Si       0.00229    0.95614    0.66242    1.000
    N332     N        0.04412    0.96218    0.65008    1.000
    Si333    Si       0.01989    0.88431    0.67786    1.000
    N334     N        0.99197    0.98063    0.69782    1.000
    Si335    Si       0.01481    0.87144    0.81607    1.000
    Si336    Si       0.02527    0.80956    0.78343    1.000
    N337     N        0.03517    0.78895    0.85837    1.000
    Si338    Si       0.99526    0.80650    0.85792    1.000
    N339     N        0.04561    0.84643    0.79486    1.000
    N340     N        0.03257    0.88408    0.85593    1.000
    N341     N        0.03030    0.98378    0.77678    1.000
    Si342    Si       0.02323    0.96637    0.85870    1.000
    Si343    Si       0.01308    0.94498    0.78854    1.000
    N344     N        0.03801    0.90845    0.79390    1.000
    N345     N        0.99495    0.94867    0.82777    1.000
    Si346    Si       0.04679    0.88245    0.75841    1.000
    Si347    Si       0.03542    0.79041    0.90242    1.000
    Si348    Si       0.02662    0.86366    0.89597    1.000
    N349     N        0.00205    0.82422    0.90026    1.000
    Si350    Si       0.00980    0.77081    0.97309    1.000
    N351     N        0.03198    0.86759    0.98889    1.000
    N352     N        0.98936    0.81072    0.96917    1.000
    N353     N        0.02689    0.76199    0.93375    1.000
    N354     N        0.00149    0.94878    0.89091    1.000
    N355     N        0.04838    0.99692    0.98366    1.000
    N356     N        0.99588    0.95150    0.96042    1.000
    Si357    Si       0.02142    0.96402    0.99103    1.000
    Si358    Si       0.01722    0.93174    0.92696    1.000
    N359     N        0.00190    0.89043    0.92169    1.000
    Si360    Si       0.07083    0.10535    0.06784    1.000
    N361     N        0.09208    0.08616    0.10198    1.000
    N362     N        0.07694    0.02385    0.10802    1.000
    Si363    Si       0.08127    0.07564    0.00505    1.000
    N364     N        0.05048    0.08284    0.03714    1.000
    N365     N        0.10303    0.03877    0.00489    1.000
    N366     N        0.09859    0.22471    0.06843    1.000
    Si367    Si       0.07859    0.23717    0.03082    1.000
    N368     N        0.08408    0.16095    0.01676    1.000
    Si369    Si       0.06005    0.05931    0.12432    1.000
    N370     N        0.07560    0.07540    0.16218    1.000
    N371     N        0.07092    0.12148    0.21061    1.000
    Si372    Si       0.07409    0.07640    0.20457    1.000
    N373     N        0.06377    0.23801    0.14977    1.000
    Si374    Si       0.09047    0.14604    0.17614    1.000
    N375     N        0.07088    0.23324    0.22555    1.000
    N376     N        0.07323    0.16576    0.14188    1.000
    Si377    Si       0.10164    0.14460    0.23655    1.000
    N378     N        0.10855    0.17419    0.20229    1.000
    N379     N        0.09199    0.05813    0.34341    1.000
    Si380    Si       0.09549    0.04968    0.30269    1.000
    N381     N        0.05502    0.04603    0.28823    1.000
    Si382    Si       0.06996    0.09485    0.35237    1.000
    N383     N        0.09674    0.12913    0.34164    1.000
    Si384    Si       0.07906    0.17961    0.28788    1.000
    N385     N        0.06547    0.17091    0.24901    1.000
    Si386    Si       0.10178    0.25678    0.29487    1.000
    N387     N        0.10495    0.21457    0.29392    1.000
    N388     N        0.06880    0.09166    0.39470    1.000
    Si389    Si       0.08575    0.05850    0.46952    1.000
    Si390    Si       0.10603    0.10330    0.41604    1.000
    N391     N        0.04734    0.07049    0.45611    1.000
    N392     N        0.10869    0.09489    0.45817    1.000
    Si393    Si       0.09422    0.21149    0.41071    1.000
    Si394    Si       0.10067    0.25121    0.46027    1.000
    N395     N        0.07050    0.20003    0.44756    1.000
    Si396    Si       0.08623    0.15883    0.44911    1.000
    N397     N        0.10537    0.14626    0.41017    1.000
    N398     N        0.08896    0.25348    0.41677    1.000
    N399     N        0.07951    0.19512    0.37336    1.000
    N400     N        0.06302    0.25285    0.48313    1.000
    Si401    Si       0.07673    0.08359    0.53493    1.000
    N402     N        0.08325    0.04823    0.51208    1.000
    N403     N        0.07623    0.07390    0.57678    1.000
    Si404    Si       0.06635    0.03339    0.59429    1.000
    Si405    Si       0.05548    0.01519    0.50949    1.000
    Si406    Si       0.09768    0.08683    0.61203    1.000
    N407     N        0.09874    0.00842    0.58186    1.000
    N408     N        0.10687    0.11412    0.52995    1.000
    N409     N        0.08433    0.17195    0.58153    1.000
    Si410    Si       0.08403    0.23936    0.52718    1.000
    N411     N        0.05670    0.20467    0.52315    1.000
    Si412    Si       0.10604    0.20364    0.60155    1.000
    N413     N        0.10581    0.23033    0.56694    1.000
    N414     N        0.10643    0.05482    0.70000    1.000
    N415     N        0.06732    0.05716    0.63477    1.000
    Si416    Si       0.06714    0.04699    0.71618    1.000
    Si417    Si       0.10320    0.04603    0.65736    1.000
    Si418    Si       0.05666    0.12962    0.74590    1.000
    Si419    Si       0.09894    0.13245    0.68510    1.000
    N420     N        0.05160    0.00978    0.69775    1.000
    N421     N        0.05870    0.13348    0.70217    1.000
    N422     N        0.10631    0.16620    0.65872    1.000
    Si423    Si       0.10137    0.20794    0.67361    1.000
    N424     N        0.06794    0.21599    0.69969    1.000
    N425     N        0.09427    0.22782    0.63466    1.000
    N426     N        0.06649    0.07570    0.82395    1.000
    Si427    Si       0.06508    0.11632    0.83942    1.000
    N428     N        0.08796    0.10665    0.76595    1.000
    N429     N        0.06577    0.03786    0.76020    1.000
    N430     N        0.07840    0.01468    0.82339    1.000
    Si431    Si       0.10242    0.05120    0.83771    1.000
    N432     N        0.10733    0.12168    0.85550    1.000
    Si433    Si       0.05536    0.07470    0.78149    1.000
    N434     N        0.05437    0.21295    0.80862    1.000
    Si435    Si       0.09739    0.21198    0.81455    1.000
    N436     N        0.10393    0.23401    0.85167    1.000
    Si437    Si       0.09081    0.02685    0.90852    1.000
    N438     N        0.09904    0.10669    0.98103    1.000
    N439     N        0.10089    0.05689    0.88000    1.000
    Si440    Si       0.05434    0.15192    0.90538    1.000
    Si441    Si       0.07938    0.22049    0.88689    1.000
    N442     N        0.08894    0.17600    0.88927    1.000
    N443     N        0.09111    0.23967    0.92334    1.000
    Si444    Si       0.08224    0.14614    0.97539    1.000
    Si445    Si       0.06304    0.23646    0.95699    1.000
    N446     N        0.09173    0.23638    0.99045    1.000
    N447     N        0.08049    0.27842    0.04512    1.000
    Si448    Si       0.08661    0.36901    0.05527    1.000
    Si449    Si       0.05771    0.30823    0.02458    1.000
    N450     N        0.05276    0.34164    0.05169    1.000
    Si451    Si       0.08426    0.26343    0.08741    1.000
    N452     N        0.11089    0.36895    0.02013    1.000
    N453     N        0.10339    0.46823    0.06497    1.000
    N454     N        0.07100    0.40842    0.05957    1.000
    Si455    Si       0.08490    0.43686    0.08890    1.000
    N456     N        0.08022    0.50257    0.11883    1.000
    Si457    Si       0.09144    0.33774    0.19629    1.000
    Si458    Si       0.07465    0.27623    0.23001    1.000
    N459     N        0.06402    0.35922    0.22469    1.000
    Si460    Si       0.09681    0.26402    0.15943    1.000
    N461     N        0.08469    0.36063    0.15947    1.000
    N462     N        0.08541    0.29500    0.19151    1.000
    Si463    Si       0.09813    0.46449    0.21387    1.000
    N464     N        0.09160    0.42237    0.22099    1.000
    N465     N        0.06933    0.49467    0.22170    1.000
    Si466    Si       0.10501    0.50520    0.15356    1.000
    Si467    Si       0.06010    0.39942    0.24417    1.000
    N468     N        0.07653    0.35730    0.35247    1.000
    N469     N        0.08364    0.33148    0.28998    1.000
    Si470    Si       0.08749    0.37055    0.31140    1.000
    N471     N        0.06110    0.26535    0.30630    1.000
    Si472    Si       0.04980    0.30497    0.28804    1.000
    N473     N        0.10582    0.28024    0.25846    1.000
    N474     N        0.08820    0.43506    0.34547    1.000
    N475     N        0.07274    0.47331    0.28661    1.000
    Si476    Si       0.06177    0.43870    0.31206    1.000
    N477     N        0.06685    0.40146    0.28672    1.000
    N478     N        0.05107    0.28950    0.36974    1.000
    N479     N        0.05190    0.37042    0.44179    1.000
    Si480    Si       0.07293    0.29027    0.40734    1.000
    N481     N        0.10092    0.32173    0.41186    1.000
    N482     N        0.08390    0.41204    0.49460    1.000
    N483     N        0.08218    0.43067    0.42741    1.000
    Si484    Si       0.08178    0.41677    0.38572    1.000
    N485     N        0.08756    0.48132    0.47063    1.000
    Si486    Si       0.05720    0.46527    0.44177    1.000
    N487     N        0.05654    0.49532    0.41016    1.000
    Si488    Si       0.08575    0.39552    0.45357    1.000
    Si489    Si       0.09502    0.50451    0.39042    1.000
    Si490    Si       0.06084    0.31717    0.54026    1.000
    N491     N        0.10040    0.33748    0.53509    1.000
    N492     N        0.06006    0.27295    0.54819    1.000
    Si493    Si       0.10016    0.37718    0.52001    1.000
    N494     N        0.07140    0.36804    0.61540    1.000
    Si495    Si       0.10633    0.34213    0.62041    1.000
    N496     N        0.06979    0.39060    0.55127    1.000
    Si497    Si       0.07633    0.40373    0.59119    1.000
    Si498    Si       0.08944    0.45589    0.50468    1.000
    N499     N        0.05504    0.45866    0.52942    1.000
    N500     N        0.08477    0.30352    0.62221    1.000
    Si501    Si       0.10099    0.30293    0.70910    1.000
    N502     N        0.07059    0.33541    0.69890    1.000
    N503     N        0.07468    0.27765    0.73608    1.000
    Si504    Si       0.06671    0.37800    0.70773    1.000
    Si505    Si       0.10800    0.26880    0.63645    1.000
    N506     N        0.06923    0.45206    0.71047    1.000
    N507     N        0.07859    0.48350    0.62378    1.000
    Si508    Si       0.09298    0.42677    0.73944    1.000
    Si509    Si       0.08909    0.48946    0.71956    1.000
    N510     N        0.04745    0.39710    0.74449    1.000
    N511     N        0.10711    0.39455    0.71090    1.000
    N512     N        0.08422    0.34990    0.82393    1.000
    Si513    Si       0.08946    0.27628    0.77752    1.000
    N514     N        0.06089    0.28209    0.80836    1.000
    Si515    Si       0.05006    0.32305    0.81501    1.000
    Si516    Si       0.06155    0.37956    0.78239    1.000
    Si517    Si       0.07831    0.38962    0.84506    1.000
    N518     N        0.09974    0.40213    0.77678    1.000
    N519     N        0.04754    0.40343    0.81862    1.000
    Si520    Si       0.09035    0.35693    0.91241    1.000
    N521     N        0.07606    0.31426    0.98398    1.000
    N522     N        0.05587    0.32789    0.91362    1.000
    N523     N        0.11122    0.36438    0.95353    1.000
    N524     N        0.07506    0.42373    0.94637    1.000
    Si525    Si       0.06930    0.49734    0.89882    1.000
    N526     N        0.07730    0.49119    0.98208    1.000
    N527     N        0.07038    0.38756    0.88746    1.000
    Si528    Si       0.09158    0.39077    0.98527    1.000
    N529     N        0.08251    0.45722    0.88796    1.000
    Si530    Si       0.06043    0.42632    0.90680    1.000
    Si531    Si       0.09707    0.45479    0.96598    1.000
    N532     N        0.05784    0.51666    0.04857    1.000
    N533     N        0.05657    0.58445    0.07549    1.000
    Si534    Si       0.09895    0.58202    0.06775    1.000
    Si535    Si       0.08976    0.50869    0.07907    1.000
    N536     N        0.10232    0.66383    0.03352    1.000
    N537     N        0.09841    0.70267    0.09707    1.000
    Si538    Si       0.08612    0.69719    0.05536    1.000
    N539     N        0.07501    0.63997    0.11584    1.000
    N540     N        0.07450    0.61399    0.18284    1.000
    Si541    Si       0.05431    0.52566    0.19474    1.000
    N542     N        0.09215    0.53862    0.17884    1.000
    Si543    Si       0.10225    0.58086    0.17616    1.000
    Si544    Si       0.06714    0.65563    0.19181    1.000
    N545     N        0.08836    0.68261    0.16665    1.000
    N546     N        0.05440    0.67385    0.23218    1.000
    Si547    Si       0.07332    0.68205    0.12683    1.000
    N548     N        0.08633    0.57305    0.32059    1.000
    Si549    Si       0.07972    0.55903    0.28018    1.000
    N550     N        0.08044    0.59636    0.25696    1.000
    Si551    Si       0.08543    0.61400    0.33451    1.000
    Si552    Si       0.06680    0.63969    0.26150    1.000
    N553     N        0.07348    0.64172    0.30488    1.000
    Si554    Si       0.09519    0.73244    0.29779    1.000
    Si555    Si       0.05745    0.68012    0.31611    1.000
    N556     N        0.05553    0.71248    0.28535    1.000
    N557     N        0.09310    0.69797    0.33293    1.000
    N558     N        0.06406    0.61076    0.37400    1.000
    N559     N        0.08977    0.54603    0.38171    1.000
    N560     N        0.06970    0.58529    0.43432    1.000
    Si561    Si       0.05772    0.57144    0.39312    1.000
    Si562    Si       0.09813    0.62685    0.39673    1.000
    N563     N        0.06188    0.70438    0.44227    1.000
    N564     N        0.09951    0.67042    0.39880    1.000
    Si565    Si       0.10272    0.70579    0.42483    1.000
    N566     N        0.05771    0.64338    0.47410    1.000
    Si567    Si       0.07632    0.68353    0.48323    1.000
    Si568    Si       0.08532    0.55629    0.58358    1.000
    N569     N        0.07697    0.52094    0.55769    1.000
    Si570    Si       0.06915    0.61436    0.50747    1.000
    N571     N        0.05152    0.62466    0.54450    1.000
    N572     N        0.04698    0.56990    0.59406    1.000
    Si573    Si       0.05834    0.75138    0.51851    1.000
    N574     N        0.08231    0.65258    0.59370    1.000
    N575     N        0.09460    0.67168    0.52536    1.000
    Si576    Si       0.06402    0.66472    0.55652    1.000
    N577     N        0.04624    0.71186    0.50383    1.000
    N578     N        0.04378    0.75910    0.56049    1.000
    N579     N        0.04710    0.58936    0.70684    1.000
    N580     N        0.06776    0.52465    0.73242    1.000
    Si581    Si       0.09080    0.51816    0.64392    1.000
    Si582    Si       0.07610    0.60968    0.73623    1.000
    N583     N        0.05504    0.54098    0.65854    1.000
    N584     N        0.06166    0.65142    0.73833    1.000
    Si585    Si       0.08372    0.75207    0.63699    1.000
    N586     N        0.06118    0.64335    0.66719    1.000
    Si587    Si       0.06605    0.67308    0.70131    1.000
    Si588    Si       0.09267    0.64820    0.63677    1.000
    N589     N        0.04722    0.72819    0.62680    1.000
    N590     N        0.07226    0.58701    0.77404    1.000
    N591     N        0.09184    0.61076    0.84153    1.000
    N592     N        0.06285    0.52192    0.80188    1.000
    Si593    Si       0.06001    0.60709    0.81114    1.000
    Si594    Si       0.10067    0.52122    0.82619    1.000
    Si595    Si       0.05469    0.54649    0.76678    1.000
    N596     N        0.07415    0.51775    0.86140    1.000
    Si597    Si       0.08775    0.65547    0.83703    1.000
    N598     N        0.09444    0.74813    0.85430    1.000
    Si599    Si       0.07719    0.74709    0.77080    1.000
    N600     N        0.06152    0.67243    0.86783    1.000
    N601     N        0.04936    0.71355    0.76595    1.000
    N602     N        0.05176    0.65178    0.80953    1.000
    N603     N        0.08892    0.52313    0.93044    1.000
    N604     N        0.08926    0.59676    0.93196    1.000
    Si605    Si       0.04984    0.51594    0.95697    1.000
    Si606    Si       0.09725    0.73007    0.99081    1.000
    N607     N        0.05447    0.72085    0.98466    1.000
    N608     N        0.08244    0.71913    0.91861    1.000
    N609     N        0.06948    0.64563    0.98110    1.000
    Si610    Si       0.06873    0.67739    0.90873    1.000
    Si611    Si       0.09623    0.75500    0.89793    1.000
    Si612    Si       0.10795    0.65954    0.99270    1.000
    N613     N        0.09671    0.85590    0.10273    1.000
    N614     N        0.10252    0.79977    0.03436    1.000
    Si615    Si       0.08147    0.81995    0.12187    1.000
    Si616    Si       0.07089    0.88753    0.09091    1.000
    N617     N        0.07933    0.98890    0.04929    1.000
    Si618    Si       0.06163    0.94913    0.05095    1.000
    N619     N        0.08911    0.92053    0.06741    1.000
    Si620    Si       0.08416    0.99873    0.00693    1.000
    Si621    Si       0.10500    0.00666    0.07974    1.000
    N622     N        0.08186    0.82427    0.16756    1.000
    Si623    Si       0.09408    0.77844    0.16635    1.000
    Si624    Si       0.05570    0.84699    0.19439    1.000
    N625     N        0.05389    0.76920    0.14714    1.000
    Si626    Si       0.06178    0.77968    0.23931    1.000
    N627     N        0.05423    0.82186    0.22949    1.000
    N628     N        0.08777    0.87921    0.19259    1.000
    N629     N        0.08621    0.76124    0.20857    1.000
    N630     N        0.05841    0.90646    0.12851    1.000
    N631     N        0.05945    0.94205    0.19491    1.000
    N632     N        0.06110    0.99227    0.23552    1.000
    Si633    Si       0.06073    0.90674    0.17235    1.000
    N634     N        0.09999    0.99738    0.17292    1.000
    Si635    Si       0.08293    0.98884    0.13420    1.000
    Si636    Si       0.09151    0.97134    0.20715    1.000
    N637     N        0.08077    0.77213    0.27875    1.000
    Si638    Si       0.09066    0.80943    0.29938    1.000
    N639     N        0.05080    0.82621    0.30070    1.000
    N640     N        0.06015    0.85081    0.36732    1.000
    Si641    Si       0.10249    0.84079    0.36812    1.000
    N642     N        0.07204    0.87881    0.25872    1.000
    Si643    Si       0.06785    0.94162    0.34483    1.000
    Si644    Si       0.05864    0.91515    0.27846    1.000
    N645     N        0.09318    0.94284    0.27629    1.000
    N646     N        0.10564    0.96381    0.33988    1.000
    N647     N        0.04817    0.90930    0.32079    1.000
    N648     N        0.09118    0.80432    0.39543    1.000
    Si649    Si       0.06270    0.81104    0.46170    1.000
    N650     N        0.06519    0.85060    0.48133    1.000
    Si651    Si       0.04813    0.81592    0.38910    1.000
    Si652    Si       0.09175    0.99499    0.44331    1.000
    N653     N        0.05549    0.00091    0.46660    1.000
    Si654    Si       0.09231    0.92159    0.46512    1.000
    N655     N        0.05137    0.90903    0.45419    1.000
    N656     N        0.07239    0.92167    0.38414    1.000
    N657     N        0.08863    0.99606    0.39885    1.000
    N658     N        0.07570    0.81424    0.57626    1.000
    Si659    Si       0.08739    0.77052    0.57165    1.000
    N660     N        0.09259    0.88073    0.56896    1.000
    N661     N        0.09962    0.75808    0.53155    1.000
    N662     N        0.06637    0.97819    0.53046    1.000
    Si663    Si       0.10539    0.98009    0.55066    1.000
    Si664    Si       0.05165    0.89310    0.56531    1.000
    Si665    Si       0.09858    0.82495    0.66696    1.000
    N666     N        0.08736    0.77071    0.73527    1.000
    N667     N        0.08783    0.83963    0.70810    1.000
    N668     N        0.07226    0.79578    0.64676    1.000
    Si669    Si       0.07738    0.81220    0.74261    1.000
    N670     N        0.10847    0.85215    0.63439    1.000
    Si671    Si       0.09404    0.91327    0.67517    1.000
    N672     N        0.10159    0.93141    0.63523    1.000
    N673     N        0.08889    0.94619    0.70061    1.000
    Si674    Si       0.10211    0.93554    0.74039    1.000
    N675     N        0.10136    0.00334    0.65401    1.000
    N676     N        0.05618    0.89782    0.65991    1.000
    Si677    Si       0.05834    0.92808    0.62863    1.000
    Si678    Si       0.07376    0.97938    0.67669    1.000
    N679     N        0.08708    0.89457    0.74599    1.000
    Si680    Si       0.07236    0.78096    0.83551    1.000
    Si681    Si       0.09002    0.84591    0.80691    1.000
    N682     N        0.09800    0.81607    0.83813    1.000
    N683     N        0.05679    0.77909    0.79536    1.000
    N684     N        0.10637    0.83113    0.76897    1.000
    N685     N        0.09738    0.88889    0.82639    1.000
    Si686    Si       0.06026    0.90854    0.83341    1.000
    N687     N        0.09582    0.96435    0.77377    1.000
    Si688    Si       0.09243    0.97908    0.84775    1.000
    N689     N        0.06179    0.94878    0.84606    1.000
    Si690    Si       0.07043    0.99845    0.78117    1.000
    N691     N        0.05999    0.85909    0.92310    1.000
    N692     N        0.07929    0.79293    0.90862    1.000
    Si693    Si       0.09184    0.83220    0.92429    1.000
    Si694    Si       0.08719    0.80176    0.99271    1.000
    N695     N        0.04585    0.79596    0.98992    1.000
    N696     N        0.10449    0.83263    0.96687    1.000
    Si697    Si       0.06034    0.88321    0.95944    1.000
    N698     N        0.09732    0.98836    0.88917    1.000
    N699     N        0.10749    0.96377    0.99506    1.000
    N700     N        0.05510    0.92525    0.94656    1.000
    N701     N        0.09590    0.89626    0.98294    1.000
    Si702    Si       0.09350    0.93633    0.96622    1.000
    N703     N        0.13529    0.03685    0.07568    1.000
    Si704    Si       0.12791    0.07816    0.07798    1.000
    N705     N        0.11253    0.10399    0.04749    1.000
    N706     N        0.15933    0.09954    0.10263    1.000
    N707     N        0.16114    0.00542    0.00040    1.000
    Si708    Si       0.12229    0.14355    0.02820    1.000
    Si709    Si       0.13546    0.20572    0.06316    1.000
    N710     N        0.14001    0.16197    0.06450    1.000
    N711     N        0.15033    0.21033    0.02195    1.000
    N712     N        0.15854    0.23136    0.09325    1.000
    N713     N        0.14074    0.05715    0.15094    1.000
    N714     N        0.13712    0.11779    0.22780    1.000
    Si715    Si       0.12811    0.02838    0.18135    1.000
    N716     N        0.12459    0.12376    0.16133    1.000
    N717     N        0.11342    0.05425    0.21415    1.000
    Si718    Si       0.11122    0.08750    0.14130    1.000
    Si719    Si       0.15593    0.12794    0.19123    1.000
    Si720    Si       0.13275    0.07749    0.24487    1.000
    N721     N        0.12461    0.23954    0.18369    1.000
    N722     N        0.14503    0.20851    0.24236    1.000
    Si723    Si       0.11180    0.21450    0.21713    1.000
    Si724    Si       0.12416    0.12053    0.30686    1.000
    N725     N        0.12212    0.01566    0.29499    1.000
    N726     N        0.11383    0.08583    0.28330    1.000
    N727     N        0.15648    0.06451    0.32982    1.000
    Si728    Si       0.13040    0.05390    0.36403    1.000
    Si729    Si       0.16112    0.03534    0.29536    1.000
    Si730    Si       0.14067    0.19228    0.28303    1.000
    N731     N        0.11764    0.15361    0.27830    1.000
    N732     N        0.15072    0.17341    0.36850    1.000
    N733     N        0.14914    0.01378    0.37321    1.000
    Si734    Si       0.12575    0.11820    0.49059    1.000
    N735     N        0.13500    0.08435    0.39331    1.000
    N736     N        0.11572    0.02912    0.45417    1.000
    Si737    Si       0.15842    0.03202    0.45985    1.000
    N738     N        0.13351    0.20495    0.42620    1.000
    Si739    Si       0.10693    0.16083    0.36929    1.000
    N740     N        0.11374    0.15994    0.48189    1.000
    Si741    Si       0.16332    0.17917    0.40969    1.000
    N742     N        0.12199    0.23158    0.50042    1.000
    N743     N        0.12519    0.11927    0.59655    1.000
    Si744    Si       0.13540    0.01857    0.60139    1.000
    N745     N        0.16228    0.03390    0.57041    1.000
    N746     N        0.14351    0.18460    0.60750    1.000
    N747     N        0.14127    0.16957    0.54125    1.000
    Si748    Si       0.14306    0.25304    0.57394    1.000
    Si749    Si       0.13832    0.19090    0.50237    1.000
    Si750    Si       0.11301    0.14264    0.56110    1.000
    N751     N        0.13221    0.05512    0.62570    1.000
    Si752    Si       0.14941    0.05244    0.71102    1.000
    Si753    Si       0.15307    0.08988    0.64216    1.000
    N754     N        0.16251    0.01131    0.70691    1.000
    N755     N        0.10882    0.10489    0.65259    1.000
    N756     N        0.16767    0.08435    0.68703    1.000
    N757     N        0.12335    0.14135    0.72001    1.000
    Si758    Si       0.15179    0.17520    0.72177    1.000
    Si759    Si       0.13243    0.14843    0.62963    1.000
    N760     N        0.13735    0.21144    0.69864    1.000
    Si761    Si       0.15131    0.25407    0.70195    1.000
    N762     N        0.14261    0.05438    0.82119    1.000
    Si763    Si       0.15813    0.03885    0.78294    1.000
    Si764    Si       0.12892    0.10732    0.75278    1.000
    N765     N        0.14464    0.06513    0.75292    1.000
    N766     N        0.16083    0.12959    0.77126    1.000
    Si767    Si       0.15666    0.16569    0.79273    1.000
    Si768    Si       0.12188    0.16156    0.85811    1.000
    Si769    Si       0.15284    0.23487    0.77422    1.000
    N770     N        0.12270    0.17607    0.81864    1.000
    N771     N        0.11013    0.23760    0.78247    1.000
    N772     N        0.15745    0.19340    0.76102    1.000
    N773     N        0.16883    0.23541    0.81838    1.000
    Si774    Si       0.14198    0.25602    0.84679    1.000
    N775     N        0.16282    0.08855    0.87783    1.000
    Si776    Si       0.12051    0.09493    0.88625    1.000
    Si777    Si       0.13929    0.10961    0.96220    1.000
    Si778    Si       0.13540    0.03269    0.97833    1.000
    N779     N        0.12068    0.01649    0.94049    1.000
    N780     N        0.11966    0.11906    0.92283    1.000
    N781     N        0.15592    0.06901    0.97124    1.000
    N782     N        0.15315    0.17033    0.89045    1.000
    N783     N        0.15265    0.13807    0.99716    1.000
    N784     N        0.15344    0.23529    0.95647    1.000
    Si785    Si       0.12681    0.21182    0.98230    1.000
    Si786    Si       0.12066    0.16352    0.91863    1.000
    N787     N        0.10980    0.17895    0.95775    1.000
    N788     N        0.15654    0.25443    0.88836    1.000
    Si789    Si       0.15057    0.34431    0.09022    1.000
    Si790    Si       0.15251    0.36206    0.01282    1.000
    Si791    Si       0.15057    0.27127    0.10925    1.000
    N792     N        0.10995    0.35840    0.09227    1.000
    N793     N        0.16509    0.36717    0.05579    1.000
    N794     N        0.10878    0.27699    0.12015    1.000
    N795     N        0.16820    0.30405    0.08583    1.000
    Si796    Si       0.12640    0.46248    0.02867    1.000
    N797     N        0.13345    0.50695    0.01325    1.000
    N798     N        0.11132    0.42051    0.11779    1.000
    N799     N        0.10863    0.43408    0.00170    1.000
    N800     N        0.12944    0.35121    0.20977    1.000
    N801     N        0.15717    0.35982    0.13317    1.000
    Si802    Si       0.11575    0.37750    0.13185    1.000
    Si803    Si       0.16416    0.25728    0.18527    1.000
    N804     N        0.11292    0.46889    0.17391    1.000
    N805     N        0.13877    0.40362    0.17490    1.000
    Si806    Si       0.13504    0.43872    0.14980    1.000
    N807     N        0.13075    0.47316    0.24094    1.000
    Si808    Si       0.12559    0.39501    0.21584    1.000
    Si809    Si       0.12287    0.31185    0.28290    1.000
    N810     N        0.13331    0.28334    0.31403    1.000
    N811     N        0.14552    0.33282    0.35903    1.000
    Si812    Si       0.15859    0.29347    0.34841    1.000
    Si813    Si       0.16016    0.37193    0.28106    1.000
    N814     N        0.16224    0.32851    0.27060    1.000
    N815     N        0.13132    0.37716    0.31320    1.000
    Si816    Si       0.16506    0.36745    0.34161    1.000
    Si817    Si       0.12427    0.45841    0.34055    1.000
    N818     N        0.13361    0.45756    0.30010    1.000
    Si819    Si       0.15553    0.44410    0.26308    1.000
    Si820    Si       0.11255    0.48931    0.27824    1.000
    N821     N        0.15209    0.40198    0.24954    1.000
    N822     N        0.10993    0.49996    0.34960    1.000
    N823     N        0.15332    0.44571    0.37007    1.000
    N824     N        0.11499    0.36553    0.46619    1.000
    Si825    Si       0.12319    0.32424    0.44925    1.000
    N826     N        0.12627    0.28683    0.46861    1.000
    Si827    Si       0.11005    0.34909    0.37935    1.000
    Si828    Si       0.15678    0.37948    0.45827    1.000
    N829     N        0.16337    0.41918    0.43716    1.000
    Si830    Si       0.12288    0.50025    0.45594    1.000
    Si831    Si       0.16628    0.48257    0.39105    1.000
    Si832    Si       0.15454    0.41209    0.39573    1.000
    N833     N        0.12964    0.49211    0.41257    1.000
    N834     N        0.15928    0.48238    0.47502    1.000
    N835     N        0.11679    0.39085    0.39153    1.000
    Si836    Si       0.13737    0.32486    0.55123    1.000
    N837     N        0.13863    0.33961    0.59249    1.000
    N838     N        0.13971    0.28226    0.54089    1.000
    Si839    Si       0.14914    0.27078    0.50128    1.000
    N840     N        0.14459    0.26905    0.61405    1.000
    N841     N        0.13732    0.39482    0.53544    1.000
    Si842    Si       0.13607    0.42901    0.55985    1.000
    N843     N        0.13748    0.49052    0.59102    1.000
    N844     N        0.12103    0.46194    0.53379    1.000
    Si845    Si       0.11549    0.46256    0.61734    1.000
    Si846    Si       0.11718    0.50155    0.55329    1.000
    N847     N        0.11120    0.42512    0.59418    1.000
    N848     N        0.13234    0.35099    0.65411    1.000
    N849     N        0.13546    0.32851    0.71889    1.000
    N850     N        0.11779    0.27450    0.68110    1.000
    Si851    Si       0.13757    0.36602    0.69572    1.000
    Si852    Si       0.16654    0.34582    0.62690    1.000
    N853     N        0.11073    0.50968    0.68303    1.000
    N854     N        0.13628    0.45519    0.65423    1.000
    Si855    Si       0.12404    0.32787    0.81742    1.000
    N856     N        0.13520    0.29841    0.84656    1.000
    N857     N        0.14921    0.36166    0.80962    1.000
    N858     N        0.12162    0.30693    0.77928    1.000
    Si859    Si       0.15608    0.30949    0.75365    1.000
    N860     N        0.16578    0.26381    0.74348    1.000
    N861     N        0.16103    0.50747    0.78101    1.000
    Si862    Si       0.13419    0.40221    0.80256    1.000
    Si863    Si       0.13859    0.47263    0.78553    1.000
    N864     N        0.11820    0.41103    0.84427    1.000
    Si865    Si       0.11518    0.45330    0.85579    1.000
    N866     N        0.11645    0.48038    0.82232    1.000
    N867     N        0.11188    0.46708    0.75190    1.000
    N868     N        0.15984    0.43458    0.78753    1.000
    Si869    Si       0.11641    0.32127    0.96663    1.000
    N870     N        0.13055    0.35303    0.88980    1.000
    N871     N        0.12678    0.29968    0.92974    1.000
    Si872    Si       0.14684    0.31271    0.88824    1.000
    Si873    Si       0.13215    0.25662    0.92592    1.000
    N874     N        0.15216    0.32192    0.99266    1.000
    N875     N        0.14524    0.41496    0.91536    1.000
    N876     N        0.13218    0.47311    0.94807    1.000
    Si877    Si       0.15018    0.38458    0.94510    1.000
    N878     N        0.16332    0.39410    0.98429    1.000
    N879     N        0.15202    0.46661    0.87440    1.000
    Si880    Si       0.14440    0.39326    0.87727    1.000
    Si881    Si       0.15841    0.45991    0.91770    1.000
    N882     N        0.12402    0.61628    0.07888    1.000
    N883     N        0.11889    0.54147    0.07872    1.000
    Si884    Si       0.14076    0.53998    0.03998    1.000
    Si885    Si       0.14340    0.55248    0.11544    1.000
    N886     N        0.11511    0.57297    0.02766    1.000
    Si887    Si       0.13566    0.65047    0.05655    1.000
    Si888    Si       0.13859    0.71611    0.10112    1.000
    N889     N        0.15739    0.68473    0.07547    1.000
    N890     N        0.14428    0.75568    0.08399    1.000
    N891     N        0.10410    0.73282    0.03401    1.000
    Si892    Si       0.11475    0.62517    0.12221    1.000
    N893     N        0.14467    0.51841    0.14065    1.000
    N894     N        0.11999    0.58265    0.13538    1.000
    N895     N        0.13086    0.59204    0.20757    1.000
    N896     N        0.10993    0.65044    0.24696    1.000
    Si897    Si       0.12674    0.74335    0.21854    1.000
    Si898    Si       0.13303    0.68274    0.16976    1.000
    N899     N        0.13850    0.70163    0.20834    1.000
    N900     N        0.15289    0.70940    0.14149    1.000
    N901     N        0.14392    0.64440    0.14543    1.000
    Si902    Si       0.13812    0.68314    0.24926    1.000
    N903     N        0.14770    0.56197    0.34252    1.000
    N904     N        0.14967    0.59461    0.27109    1.000
    Si905    Si       0.15526    0.54976    0.26688    1.000
    N906     N        0.11631    0.53257    0.27765    1.000
    Si907    Si       0.15875    0.60397    0.35146    1.000
    N908     N        0.12294    0.62842    0.35615    1.000
    Si909    Si       0.10882    0.54332    0.34297    1.000
    Si910    Si       0.11878    0.60981    0.24487    1.000
    Si911    Si       0.11936    0.67267    0.35837    1.000
    Si912    Si       0.13548    0.73513    0.36385    1.000
    N913     N        0.12868    0.75064    0.32259    1.000
    N914     N        0.12322    0.72186    0.26529    1.000
    Si915    Si       0.14991    0.75642    0.28318    1.000
    N916     N        0.15379    0.69592    0.36834    1.000
    N917     N        0.12716    0.61236    0.42734    1.000
    N918     N        0.12545    0.54310    0.45392    1.000
    N919     N        0.10641    0.59523    0.49571    1.000
    Si920    Si       0.10711    0.58228    0.45493    1.000
    N921     N        0.11967    0.69376    0.46299    1.000
    N922     N        0.11506    0.74204    0.40386    1.000
    Si923    Si       0.16155    0.68298    0.46532    1.000
    N924     N        0.13605    0.53197    0.52876    1.000
    Si925    Si       0.13268    0.57688    0.52890    1.000
    Si926    Si       0.11502    0.62673    0.58257    1.000
    N927     N        0.11120    0.58669    0.56353    1.000
    N928     N        0.10893    0.75188    0.60196    1.000
    N929     N        0.14482    0.65681    0.57219    1.000
    Si930    Si       0.13809    0.67142    0.53140    1.000
    N931     N        0.15687    0.71109    0.52914    1.000
    Si932    Si       0.15265    0.75182    0.60005    1.000
    Si933    Si       0.15620    0.67708    0.60878    1.000
    Si934    Si       0.14239    0.75231    0.52922    1.000
    N935     N        0.16245    0.65498    0.49943    1.000
    N936     N        0.11030    0.54789    0.62012    1.000
    N937     N        0.12066    0.61731    0.62663    1.000
    N938     N        0.15496    0.54444    0.72747    1.000
    N939     N        0.14391    0.57518    0.67344    1.000
    Si940    Si       0.13977    0.57903    0.63131    1.000
    N941     N        0.11789    0.61382    0.72323    1.000
    Si942    Si       0.14345    0.53521    0.68669    1.000
    Si943    Si       0.15174    0.58775    0.71754    1.000
    N944     N        0.12075    0.68346    0.63849    1.000
    Si945    Si       0.12935    0.70495    0.67548    1.000
    N946     N        0.15198    0.75415    0.72869    1.000
    Si947    Si       0.13253    0.65540    0.72657    1.000
    N948     N        0.10834    0.68233    0.70478    1.000
    N949     N        0.10638    0.74048    0.67276    1.000
    N950     N        0.13084    0.55174    0.82560    1.000
    Si951    Si       0.13098    0.58986    0.84844    1.000
    N952     N        0.15543    0.62580    0.83741    1.000
    Si953    Si       0.15360    0.66277    0.80986    1.000
    Si954    Si       0.12297    0.72646    0.82638    1.000
    N955     N        0.11719    0.74004    0.78548    1.000
    N956     N        0.15089    0.65195    0.76671    1.000
    N957     N        0.11790    0.68286    0.82611    1.000
    N958     N        0.16008    0.73709    0.84430    1.000
    Si959    Si       0.15615    0.75590    0.77295    1.000
    Si960    Si       0.11160    0.56096    0.92074    1.000
    N961     N        0.13792    0.57011    0.88853    1.000
    N962     N        0.13478    0.55151    0.95796    1.000
    Si963    Si       0.12134    0.62619    0.93218    1.000
    N964     N        0.13112    0.62513    0.97552    1.000
    Si965    Si       0.11620    0.51221    0.96862    1.000
    Si966    Si       0.13080    0.58351    0.98953    1.000
    N967     N        0.16262    0.61854    0.91827    1.000
    N968     N        0.13780    0.75080    0.91364    1.000
    Si969    Si       0.12578    0.70117    0.93037    1.000
    N970     N        0.10784    0.66274    0.91858    1.000
    N971     N        0.11810    0.69657    0.97518    1.000
    Si972    Si       0.13898    0.86446    0.10377    1.000
    Si973    Si       0.15235    0.79036    0.10626    1.000
    N974     N        0.15239    0.86161    0.01848    1.000
    N975     N        0.15532    0.82705    0.08416    1.000
    Si976    Si       0.12856    0.76670    0.04223    1.000
    N977     N        0.15004    0.95297    0.05080    1.000
    Si978    Si       0.12475    0.93768    0.08264    1.000
    Si979    Si       0.14920    0.96559    0.01036    1.000
    N980     N        0.15437    0.90300    0.09051    1.000
    N981     N        0.11290    0.97183    0.10544    1.000
    Si982    Si       0.10911    0.86185    0.24190    1.000
    N983     N        0.11401    0.79174    0.12672    1.000
    N984     N        0.12970    0.83619    0.21212    1.000
    N985     N        0.14644    0.86631    0.14619    1.000
    N986     N        0.13959    0.76742    0.17937    1.000
    Si987    Si       0.11770    0.85175    0.17346    1.000
    N988     N        0.15025    0.77328    0.24301    1.000
    N989     N        0.12886    0.95070    0.21601    1.000
    N990     N        0.11962    0.83222    0.27484    1.000
    Si991    Si       0.15347    0.79373    0.34438    1.000
    N992     N        0.11529    0.81503    0.33551    1.000
    Si993    Si       0.16013    0.83230    0.28735    1.000
    N994     N        0.12693    0.87639    0.36737    1.000
    Si995    Si       0.11938    0.97072    0.30059    1.000
    Si996    Si       0.13175    0.93253    0.25646    1.000
    N997     N        0.15778    0.95656    0.28631    1.000
    N998     N        0.13973    0.89222    0.25202    1.000
    N999     N        0.14406    0.85044    0.48371    1.000
    Si1000   Si       0.12009    0.78295    0.42008    1.000
    Si1001   Si       0.14939    0.80753    0.47261    1.000
    N1002    N        0.15962    0.79843    0.43001    1.000
    N1003    N        0.15818    0.76993    0.49193    1.000
    N1004    N        0.10601    0.80020    0.45797    1.000
    Si1005   Si       0.10473    0.86598    0.47407    1.000
    N1006    N        0.11072    0.88973    0.43750    1.000
    N1007    N        0.14079    0.94159    0.39140    1.000
    N1008    N        0.10900    0.96018    0.45933    1.000
    Si1009   Si       0.11380    0.90682    0.39685    1.000
    Si1010   Si       0.12245    0.97956    0.37690    1.000
    Si1011   Si       0.14580    0.96549    0.48373    1.000
    N1012    N        0.14705    0.83867    0.58233    1.000
    N1013    N        0.15798    0.77362    0.56276    1.000
    Si1014   Si       0.10349    0.84460    0.59168    1.000
    Si1015   Si       0.16448    0.88595    0.49854    1.000
    N1016    N        0.15853    0.89348    0.54167    1.000
    N1017    N        0.15288    0.97988    0.60986    1.000
    N1018    N        0.15386    0.90130    0.61112    1.000
    Si1019   Si       0.13291    0.94177    0.60789    1.000
    N1020    N        0.13734    0.98626    0.52198    1.000
    Si1021   Si       0.11718    0.90449    0.54219    1.000
    N1022    N        0.11773    0.94103    0.56595    1.000
    N1023    N        0.10516    0.90129    0.50064    1.000
    N1024    N        0.12980    0.80219    0.68084    1.000
    Si1025   Si       0.11786    0.76499    0.70599    1.000
    Si1026   Si       0.14079    0.87628    0.64612    1.000
    Si1027   Si       0.11520    0.86780    0.72599    1.000
    N1028    N        0.14612    0.94196    0.73613    1.000
    N1029    N        0.12599    0.88603    0.68746    1.000
    N1030    N        0.14579    0.85099    0.82055    1.000
    Si1031   Si       0.13408    0.82706    0.85836    1.000
    Si1032   Si       0.14962    0.83541    0.77823    1.000
    N1033    N        0.15380    0.86729    0.74817    1.000
    Si1034   Si       0.16612    0.95767    0.85724    1.000
    N1035    N        0.15647    0.91852    0.79402    1.000
    Si1036   Si       0.13562    0.96070    0.79027    1.000
    Si1037   Si       0.13939    0.89609    0.82745    1.000
    N1038    N        0.13162    0.96927    0.83311    1.000
    N1039    N        0.15423    0.99646    0.77413    1.000
    N1040    N        0.15921    0.91527    0.86012    1.000
    N1041    N        0.11133    0.76752    0.97588    1.000
    Si1042   Si       0.12876    0.86467    0.98374    1.000
    Si1043   Si       0.14922    0.76799    0.95214    1.000
    Si1044   Si       0.15958    0.84351    0.92287    1.000
    N1045    N        0.12517    0.84613    0.89750    1.000
    N1046    N        0.15541    0.87749    0.95073    1.000
    N1047    N        0.12459    0.94071    0.93614    1.000
    Si1048   Si       0.13020    0.97999    0.91624    1.000
    Si1049   Si       0.15952    0.91977    0.94690    1.000
    Si1050   Si       0.20105    0.02449    0.01399    1.000
    Si1051   Si       0.21386    0.07967    0.07893    1.000
    N1052    N        0.21546    0.05395    0.04242    1.000
    N1053    N        0.20134    0.12002    0.05770    1.000
    N1054    N        0.20683    0.05843    0.11779    1.000
    Si1055   Si       0.17041    0.13684    0.08319    1.000
    Si1056   Si       0.19128    0.20512    0.10129    1.000
    Si1057   Si       0.19388    0.20485    0.02185    1.000
    N1058    N        0.21043    0.20763    0.06154    1.000
    N1059    N        0.21190    0.16811    0.00749    1.000
    N1060    N        0.18515    0.16363    0.11385    1.000
    Si1061   Si       0.17549    0.07883    0.13841    1.000
    N1062    N        0.18975    0.10834    0.16764    1.000
    N1063    N        0.21412    0.04663    0.20152    1.000
    Si1064   Si       0.20705    0.05727    0.24231    1.000
    N1065    N        0.21782    0.09885    0.23764    1.000
    Si1066   Si       0.22100    0.09158    0.19290    1.000
    N1067    N        0.22242    0.22395    0.12559    1.000
    Si1068   Si       0.18035    0.19656    0.21966    1.000
    Si1069   Si       0.19909    0.15148    0.15340    1.000
    N1070    N        0.17762    0.16564    0.18863    1.000
    N1071    N        0.19689    0.23149    0.20041    1.000
    Si1072   Si       0.18784    0.09350    0.33307    1.000
    N1073    N        0.21884    0.07734    0.30462    1.000
    N1074    N        0.16737    0.05147    0.25727    1.000
    N1075    N        0.19465    0.01373    0.31314    1.000
    N1076    N        0.16639    0.12959    0.31763    1.000
    N1077    N        0.17627    0.19750    0.30713    1.000
    Si1078   Si       0.18081    0.16685    0.33838    1.000
    Si1079   Si       0.20666    0.22087    0.28641    1.000
    N1080    N        0.20940    0.19376    0.25064    1.000
    N1081    N        0.22309    0.16213    0.35394    1.000
    N1082    N        0.22070    0.02007    0.38087    1.000
    N1083    N        0.20206    0.09495    0.37498    1.000
    N1084    N        0.18321    0.05877    0.43302    1.000
    Si1085   Si       0.17355    0.09569    0.40908    1.000
    Si1086   Si       0.21997    0.04462    0.41665    1.000
    N1087    N        0.16926    0.11279    0.49040    1.000
    N1088    N        0.20109    0.20176    0.40370    1.000
    Si1089   Si       0.21868    0.18894    0.49082    1.000
    N1090    N        0.17590    0.18305    0.48165    1.000
    Si1091   Si       0.20016    0.24580    0.40013    1.000
    N1092    N        0.17364    0.13587    0.42470    1.000
    Si1093   Si       0.18406    0.14411    0.46421    1.000
    Si1094   Si       0.18934    0.08049    0.50974    1.000
    N1095    N        0.19686    0.08808    0.55184    1.000
    Si1096   Si       0.19759    0.05778    0.58354    1.000
    N1097    N        0.20965    0.02255    0.61330    1.000
    Si1098   Si       0.17095    0.01249    0.53340    1.000
    Si1099   Si       0.20181    0.12674    0.61327    1.000
    N1100    N        0.17293    0.04116    0.50029    1.000
    N1101    N        0.19123    0.08325    0.62049    1.000
    N1102    N        0.17858    0.22567    0.56375    1.000
    N1103    N        0.19877    0.15345    0.57776    1.000
    Si1104   Si       0.21853    0.23586    0.57772    1.000
    Si1105   Si       0.16905    0.18394    0.57121    1.000
    Si1106   Si       0.18852    0.12219    0.68354    1.000
    Si1107   Si       0.21822    0.05469    0.64249    1.000
    N1108    N        0.21860    0.03921    0.68098    1.000
    Si1109   Si       0.22357    0.18454    0.70838    1.000
    N1110    N        0.19040    0.15535    0.71528    1.000
    N1111    N        0.17058    0.13364    0.64580    1.000
    N1112    N        0.22084    0.19885    0.66445    1.000
    Si1113   Si       0.22072    0.23884    0.68001    1.000
    N1114    N        0.22298    0.22672    0.72164    1.000
    N1115    N        0.20166    0.03784    0.79541    1.000
    N1116    N        0.20558    0.09721    0.82320    1.000
    N1117    N        0.20758    0.03799    0.86108    1.000
    Si1118   Si       0.17799    0.06693    0.84433    1.000
    Si1119   Si       0.21530    0.01039    0.82867    1.000
    N1120    N        0.21615    0.09033    0.74639    1.000
    Si1121   Si       0.20103    0.13159    0.74975    1.000
    Si1122   Si       0.21755    0.13681    0.83740    1.000
    N1123    N        0.19159    0.16816    0.81861    1.000
    Si1124   Si       0.19889    0.20914    0.83289    1.000
    N1125    N        0.18118    0.11798    0.94405    1.000
    Si1126   Si       0.19312    0.10712    0.90398    1.000
    Si1127   Si       0.19977    0.07950    0.96024    1.000
    N1128    N        0.21768    0.07273    0.92055    1.000
    Si1129   Si       0.19195    0.14799    0.97425    1.000
    N1130    N        0.19498    0.18283    0.94294    1.000
    N1131    N        0.21769    0.24779    0.92695    1.000
    N1132    N        0.21157    0.13954    0.87999    1.000
    Si1133   Si       0.20053    0.25210    0.88684    1.000
    Si1134   Si       0.19527    0.17548    0.89940    1.000
    N1135    N        0.20728    0.21018    0.87561    1.000
    Si1136   Si       0.19578    0.22372    0.95730    1.000
    N1137    N        0.21290    0.23211    0.99549    1.000
    Si1138   Si       0.20948    0.30294    0.06992    1.000
    N1139    N        0.21513    0.29044    0.02914    1.000
    Si1140   Si       0.20753    0.37174    0.04855    1.000
    N1141    N        0.20468    0.35430    0.00932    1.000
    N1142    N        0.22834    0.34269    0.07229    1.000
    N1143    N        0.22137    0.41184    0.04682    1.000
    Si1144   Si       0.20823    0.43945    0.01515    1.000
    Si1145   Si       0.17813    0.49708    0.01660    1.000
    N1146    N        0.21429    0.49797    0.11253    1.000
    N1147    N        0.16849    0.45616    0.02870    1.000
    N1148    N        0.22375    0.40632    0.11607    1.000
    Si1149   Si       0.16559    0.32822    0.22598    1.000
    Si1150   Si       0.20992    0.26343    0.22738    1.000
    Si1151   Si       0.21668    0.26513    0.13320    1.000
    N1152    N        0.19395    0.35058    0.20342    1.000
    N1153    N        0.17457    0.28873    0.21598    1.000
    N1154    N        0.17565    0.27119    0.14569    1.000
    Si1155   Si       0.17258    0.37527    0.17054    1.000
    Si1156   Si       0.18405    0.49859    0.14656    1.000
    Si1157   Si       0.21147    0.43335    0.14867    1.000
    N1158    N        0.17463    0.45580    0.14489    1.000
    N1159    N        0.20417    0.40444    0.18062    1.000
    N1160    N        0.20078    0.29942    0.33094    1.000
    N1161    N        0.19504    0.37201    0.30746    1.000
    Si1162   Si       0.19375    0.29918    0.28581    1.000
    N1163    N        0.20024    0.25971    0.27011    1.000
    N1164    N        0.19453    0.45745    0.27131    1.000
    Si1165   Si       0.21187    0.49591    0.28069    1.000
    N1166    N        0.18367    0.50578    0.36213    1.000
    Si1167   Si       0.20255    0.31979    0.43288    1.000
    N1168    N        0.20413    0.27349    0.43334    1.000
    N1169    N        0.22014    0.32773    0.39372    1.000
    N1170    N        0.22270    0.32512    0.47237    1.000
    Si1171   Si       0.22390    0.37236    0.38988    1.000
    N1172    N        0.16675    0.26233    0.37623    1.000
    N1173    N        0.16521    0.33972    0.44002    1.000
    N1174    N        0.18520    0.38598    0.37715    1.000
    Si1175   Si       0.18649    0.45237    0.45413    1.000
    N1176    N        0.20021    0.47658    0.41823    1.000
    N1177    N        0.18530    0.39072    0.48744    1.000
    N1178    N        0.22508    0.44225    0.47025    1.000
    Si1179   Si       0.20557    0.31304    0.51178    1.000
    N1180    N        0.21340    0.26580    0.60770    1.000
    N1181    N        0.17159    0.33600    0.52553    1.000
    Si1182   Si       0.17646    0.37804    0.52886    1.000
    N1183    N        0.20750    0.38251    0.55654    1.000
    N1184    N        0.19189    0.27447    0.49992    1.000
    N1185    N        0.19078    0.49818    0.54149    1.000
    N1186    N        0.17490    0.43909    0.57640    1.000
    Si1187   Si       0.18038    0.48111    0.57887    1.000
    Si1188   Si       0.20030    0.40678    0.59128    1.000
    N1189    N        0.20534    0.49124    0.61193    1.000
    Si1190   Si       0.16554    0.50852    0.50880    1.000
    N1191    N        0.19464    0.31656    0.64001    1.000
    Si1192   Si       0.18105    0.27613    0.63407    1.000
    Si1193   Si       0.21620    0.38002    0.71507    1.000
    N1194    N        0.17572    0.38431    0.69460    1.000
    N1195    N        0.18182    0.25572    0.67217    1.000
    Si1196   Si       0.16840    0.47532    0.67210    1.000
    Si1197   Si       0.19430    0.40470    0.66094    1.000
    N1198    N        0.18273    0.38661    0.62404    1.000
    N1199    N        0.20236    0.44814    0.66569    1.000
    N1200    N        0.17627    0.47705    0.71598    1.000
    Si1201   Si       0.21335    0.45141    0.70868    1.000
    N1202    N        0.21261    0.41629    0.73667    1.000
    Si1203   Si       0.19301    0.35729    0.80321    1.000
    N1204    N        0.19211    0.33113    0.76671    1.000
    N1205    N        0.21988    0.34007    0.83119    1.000
    Si1206   Si       0.22263    0.31435    0.86481    1.000
    N1207    N        0.22652    0.27188    0.85708    1.000
    Si1208   Si       0.21254    0.26242    0.74391    1.000
    Si1209   Si       0.20176    0.43108    0.77579    1.000
    N1210    N        0.21221    0.39711    0.80128    1.000
    N1211    N        0.18436    0.39285    0.86266    1.000
    Si1212   Si       0.19453    0.47778    0.86761    1.000
    Si1213   Si       0.21894    0.40666    0.84329    1.000
    N1214    N        0.22011    0.44980    0.84599    1.000
    N1215    N        0.21325    0.30371    0.95848    1.000
    N1216    N        0.18888    0.31313    0.89143    1.000
    N1217    N        0.18955    0.36567    0.93663    1.000
    Si1218   Si       0.21134    0.32974    0.92496    1.000
    Si1219   Si       0.20837    0.38143    0.97346    1.000
    Si1220   Si       0.19542    0.31322    0.99819    1.000
    N1221    N        0.19781    0.48213    0.91130    1.000
    N1222    N        0.22632    0.42003    0.97975    1.000
    N1223    N        0.18767    0.56021    0.11191    1.000
    N1224    N        0.18376    0.53230    0.04667    1.000
    Si1225   Si       0.20754    0.53057    0.08452    1.000
    Si1226   Si       0.20329    0.56666    0.02503    1.000
    N1227    N        0.20750    0.59733    0.05549    1.000
    N1228    N        0.21202    0.63044    0.11500    1.000
    N1229    N        0.20368    0.72040    0.02819    1.000
    Si1230   Si       0.18799    0.68472    0.04554    1.000
    N1231    N        0.22081    0.69764    0.11729    1.000
    N1232    N        0.16666    0.65002    0.02470    1.000
    Si1233   Si       0.19487    0.75682    0.00935    1.000
    Si1234   Si       0.17467    0.59030    0.20949    1.000
    N1235    N        0.18927    0.59554    0.16980    1.000
    N1236    N        0.20268    0.52667    0.17358    1.000
    N1237    N        0.19755    0.62081    0.23097    1.000
    Si1238   Si       0.21529    0.53596    0.21443    1.000
    Si1239   Si       0.20848    0.56227    0.15082    1.000
    N1240    N        0.17763    0.55165    0.23023    1.000
    Si1241   Si       0.18573    0.63222    0.14957    1.000
    Si1242   Si       0.21412    0.65726    0.21141    1.000
    N1243    N        0.20925    0.73722    0.17443    1.000
    N1244    N        0.21904    0.69446    0.23112    1.000
    N1245    N        0.19566    0.66714    0.17451    1.000
    Si1246   Si       0.19418    0.70360    0.14960    1.000
    N1247    N        0.18267    0.52621    0.29243    1.000
    Si1248   Si       0.18247    0.53697    0.33406    1.000
    Si1249   Si       0.18362    0.62009    0.27658    1.000
    N1250    N        0.21627    0.56104    0.34625    1.000
    N1251    N        0.21929    0.58914    0.27803    1.000
    N1252    N        0.18173    0.62186    0.32039    1.000
    N1253    N        0.18921    0.73285    0.28371    1.000
    Si1254   Si       0.20612    0.69466    0.27233    1.000
    Si1255   Si       0.21453    0.64622    0.33290    1.000
    N1256    N        0.17153    0.66657    0.27097    1.000
    N1257    N        0.20969    0.54922    0.42080    1.000
    N1258    N        0.18295    0.60638    0.38787    1.000
    N1259    N        0.19116    0.60213    0.46258    1.000
    Si1260   Si       0.21147    0.56316    0.46149    1.000
    Si1261   Si       0.21683    0.57739    0.38737    1.000
    N1262    N        0.19710    0.53689    0.49151    1.000
    Si1263   Si       0.16942    0.61769    0.42693    1.000
    N1264    N        0.21922    0.66590    0.37041    1.000
    N1265    N        0.20989    0.72046    0.40414    1.000
    Si1266   Si       0.21101    0.75276    0.37468    1.000
    Si1267   Si       0.18687    0.68558    0.39401    1.000
    N1268    N        0.17640    0.66288    0.42880    1.000
    N1269    N        0.19820    0.70696    0.47598    1.000
    Si1270   Si       0.19925    0.58533    0.57247    1.000
    N1271    N        0.17517    0.56559    0.60736    1.000
    N1272    N        0.21834    0.62331    0.57976    1.000
    N1273    N        0.17297    0.59213    0.53549    1.000
    Si1274   Si       0.18950    0.62049    0.50206    1.000
    Si1275   Si       0.21904    0.52704    0.52801    1.000
    N1276    N        0.22468    0.55352    0.56185    1.000
    Si1277   Si       0.19852    0.71107    0.51821    1.000
    N1278    N        0.17639    0.71525    0.60099    1.000
    N1279    N        0.21764    0.75208    0.52632    1.000
    N1280    N        0.21720    0.68880    0.55107    1.000
    Si1281   Si       0.21937    0.71188    0.58900    1.000
    Si1282   Si       0.19750    0.53245    0.62726    1.000
    N1283    N        0.18845    0.59905    0.73740    1.000
    N1284    N        0.17433    0.51732    0.66181    1.000
    Si1285   Si       0.17972    0.51178    0.74155    1.000
    Si1286   Si       0.19372    0.67906    0.67416    1.000
    Si1287   Si       0.18458    0.74850    0.70235    1.000
    N1288    N        0.18658    0.65984    0.63506    1.000
    N1289    N        0.21963    0.72718    0.71970    1.000
    N1290    N        0.17269    0.65791    0.70664    1.000
    N1291    N        0.17155    0.71581    0.67605    1.000
    N1292    N        0.20024    0.56648    0.80248    1.000
    Si1293   Si       0.21600    0.57161    0.76114    1.000
    Si1294   Si       0.17080    0.53499    0.81277    1.000
    N1295    N        0.19892    0.51295    0.84097    1.000
    N1296    N        0.20053    0.59365    0.86586    1.000
    N1297    N        0.22017    0.53053    0.74818    1.000
    Si1298   Si       0.22581    0.58619    0.83117    1.000
    Si1299   Si       0.19881    0.63705    0.85435    1.000
    N1300    N        0.18978    0.72857    0.78374    1.000
    Si1301   Si       0.19424    0.71830    0.82559    1.000
    N1302    N        0.18968    0.67691    0.82980    1.000
    Si1303   Si       0.22211    0.70771    0.75896    1.000
    N1304    N        0.22027    0.66265    0.76363    1.000
    Si1305   Si       0.18814    0.64196    0.74380    1.000
    Si1306   Si       0.22565    0.51664    0.92182    1.000
    N1307    N        0.19322    0.51798    0.98036    1.000
    Si1308   Si       0.17867    0.55223    0.96124    1.000
    Si1309   Si       0.17798    0.58207    0.90032    1.000
    N1310    N        0.19981    0.55287    0.92279    1.000
    Si1311   Si       0.17287    0.62774    0.98820    1.000
    N1312    N        0.17786    0.58260    0.99406    1.000
    N1313    N        0.20428    0.74514    0.89956    1.000
    N1314    N        0.20531    0.64227    0.96322    1.000
    N1315    N        0.16750    0.69031    0.92538    1.000
    N1316    N        0.18272    0.74469    0.96656    1.000
    Si1317   Si       0.19054    0.65279    0.92376    1.000
    Si1318   Si       0.19851    0.72037    0.93355    1.000
    N1319    N        0.21693    0.65318    0.89015    1.000
    N1320    N        0.20577    0.83694    0.03602    1.000
    Si1321   Si       0.19503    0.87422    0.01517    1.000
    Si1322   Si       0.16347    0.82398    0.03993    1.000
    N1323    N        0.16444    0.78130    0.02513    1.000
    Si1324   Si       0.18158    0.93024    0.06944    1.000
    N1325    N        0.20585    0.96024    0.09301    1.000
    N1326    N        0.20690    0.90832    0.04105    1.000
    N1327    N        0.21606    0.98744    0.02979    1.000
    N1328    N        0.18963    0.78036    0.12713    1.000
    N1329    N        0.19232    0.80615    0.19142    1.000
    Si1330   Si       0.18156    0.77142    0.16788    1.000
    N1331    N        0.21902    0.86620    0.15284    1.000
    Si1332   Si       0.18109    0.88111    0.24526    1.000
    Si1333   Si       0.16266    0.81017    0.22178    1.000
    Si1334   Si       0.16694    0.95772    0.19309    1.000
    Si1335   Si       0.21845    0.99967    0.19886    1.000
    N1336    N        0.16353    0.00030    0.18612    1.000
    N1337    N        0.18234    0.93498    0.15856    1.000
    N1338    N        0.17905    0.89079    0.20234    1.000
    Si1339   Si       0.21562    0.95550    0.13569    1.000
    Si1340   Si       0.18337    0.89033    0.16048    1.000
    N1341    N        0.20282    0.96436    0.21888    1.000
    N1342    N        0.22172    0.99337    0.15495    1.000
    Si1343   Si       0.20949    0.76908    0.29908    1.000
    N1344    N        0.18343    0.86449    0.31269    1.000
    N1345    N        0.17269    0.79301    0.30537    1.000
    N1346    N        0.18611    0.83850    0.25192    1.000
    Si1347   Si       0.16829    0.86864    0.35390    1.000
    N1348    N        0.16980    0.82757    0.36848    1.000
    N1349    N        0.16776    0.76286    0.37149    1.000
    Si1350   Si       0.18773    0.00345    0.35842    1.000
    Si1351   Si       0.19536    0.97060    0.30421    1.000
    N1352    N        0.19140    0.95920    0.34634    1.000
    N1353    N        0.21122    0.90413    0.26452    1.000
    N1354    N        0.19641    0.81458    0.48492    1.000
    Si1355   Si       0.19076    0.81284    0.40474    1.000
    N1356    N        0.21085    0.84728    0.42896    1.000
    Si1357   Si       0.20464    0.77215    0.49038    1.000
    N1358    N        0.20985    0.88216    0.49057    1.000
    Si1359   Si       0.22326    0.84568    0.47122    1.000
    N1360    N        0.19267    0.89456    0.37707    1.000
    Si1361   Si       0.21089    0.97845    0.44661    1.000
    Si1362   Si       0.18099    0.93494    0.38057    1.000
    N1363    N        0.20889    0.95529    0.41002    1.000
    N1364    N        0.16970    0.92944    0.48851    1.000
    N1365    N        0.17164    0.99044    0.45904    1.000
    N1366    N        0.20573    0.86182    0.59809    1.000
    Si1367   Si       0.17772    0.80763    0.58324    1.000
    N1368    N        0.21896    0.80574    0.56798    1.000
    Si1369   Si       0.16977    0.87635    0.57855    1.000
    N1370    N        0.21209    0.94665    0.59933    1.000
    N1371    N        0.20912    0.99345    0.54494    1.000
    Si1372   Si       0.19559    0.98243    0.61784    1.000
    Si1373   Si       0.22866    0.95828    0.56222    1.000
    Si1374   Si       0.21280    0.92506    0.49434    1.000
    N1375    N        0.17281    0.78685    0.62198    1.000
    N1376    N        0.17306    0.85090    0.65692    1.000
    Si1377   Si       0.21141    0.86005    0.64077    1.000
    N1378    N        0.19524    0.78899    0.69006    1.000
    Si1379   Si       0.16826    0.80855    0.66067    1.000
    N1380    N        0.21244    0.91091    0.74711    1.000
    Si1381   Si       0.20444    0.00066    0.69032    1.000
    Si1382   Si       0.16757    0.97992    0.73657    1.000
    N1383    N        0.21096    0.97737    0.72701    1.000
    N1384    N        0.21004    0.97134    0.65801    1.000
    N1385    N        0.22527    0.89723    0.65671    1.000
    Si1386   Si       0.20962    0.81170    0.79485    1.000
    N1387    N        0.17099    0.79699    0.78153    1.000
    N1388    N        0.21545    0.83368    0.83189    1.000
    N1389    N        0.16690    0.80065    0.86974    1.000
    N1390    N        0.22411    0.83584    0.76018    1.000
    N1391    N        0.20292    0.96972    0.83513    1.000
    Si1392   Si       0.17082    0.90948    0.75374    1.000
    N1393    N        0.22738    0.90056    0.85572    1.000
    Si1394   Si       0.20539    0.82497    0.87319    1.000
    N1395    N        0.19289    0.85898    0.90001    1.000
    N1396    N        0.22073    0.87647    0.97941    1.000
    Si1397   Si       0.16824    0.75925    0.88222    1.000
    N1398    N        0.16328    0.80808    0.94533    1.000
    Si1399   Si       0.21288    0.88023    0.93752    1.000
    N1400    N        0.21924    0.98240    0.95323    1.000
    N1401    N        0.16991    0.97539    0.89890    1.000
    Si1402   Si       0.20651    0.96187    0.91666    1.000
    N1403    N        0.19703    0.91941    0.92275    1.000
    Si1404   Si       0.21025    0.96322    0.99190    1.000
    Si1405   Si       0.19321    0.89927    0.88233    1.000
    N1406    N        0.17308    0.94040    0.98443    1.000
    N1407    N        0.25499    0.09345    0.08646    1.000
    Si1408   Si       0.24330    0.06974    0.01005    1.000
    Si1409   Si       0.22974    0.13484    0.02691    1.000
    N1410    N        0.27257    0.14016    0.03723    1.000
    Si1411   Si       0.24644    0.23145    0.08136    1.000
    N1412    N        0.27014    0.24036    0.04526    1.000
    N1413    N        0.27835    0.20905    0.10358    1.000
    Si1414   Si       0.23427    0.02792    0.13211    1.000
    N1415    N        0.26082    0.10498    0.18265    1.000
    N1416    N        0.27178    0.04377    0.14677    1.000
    Si1417   Si       0.27368    0.02236    0.23875    1.000
    N1418    N        0.24088    0.16544    0.15736    1.000
    N1419    N        0.28023    0.22143    0.17290    1.000
    N1420    N        0.26217    0.16146    0.22946    1.000
    Si1421   Si       0.25655    0.20024    0.13967    1.000
    Si1422   Si       0.26562    0.14793    0.18832    1.000
    N1423    N        0.26455    0.03568    0.33209    1.000
    N1424    N        0.26571    0.10787    0.35014    1.000
    Si1425   Si       0.24331    0.10022    0.27428    1.000
    N1426    N        0.23882    0.03416    0.26224    1.000
    Si1427   Si       0.23152    0.03584    0.30451    1.000
    Si1428   Si       0.26257    0.01142    0.36896    1.000
    N1429    N        0.28271    0.08452    0.28319    1.000
    N1430    N        0.24036    0.13970    0.29057    1.000
    Si1431   Si       0.24484    0.17530    0.26517    1.000
    Si1432   Si       0.25618    0.14561    0.33158    1.000
    N1433    N        0.24739    0.20906    0.29644    1.000
    Si1434   Si       0.24347    0.10380    0.38678    1.000
    N1435    N        0.25156    0.07267    0.41531    1.000
    Si1436   Si       0.24846    0.03695    0.48351    1.000
    N1437    N        0.23040    0.01634    0.44929    1.000
    Si1438   Si       0.23618    0.17650    0.39268    1.000
    Si1439   Si       0.26702    0.14539    0.45066    1.000
    N1440    N        0.24926    0.13990    0.41148    1.000
    N1441    N        0.27200    0.19761    0.39760    1.000
    N1442    N        0.22833    0.15110    0.47257    1.000
    N1443    N        0.23779    0.22440    0.48026    1.000
    Si1444   Si       0.27736    0.23974    0.38464    1.000
    N1445    N        0.24519    0.05521    0.57236    1.000
    Si1446   Si       0.24477    0.08834    0.54297    1.000
    N1447    N        0.26352    0.01565    0.51682    1.000
    Si1448   Si       0.24754    0.01497    0.55651    1.000
    N1449    N        0.25418    0.12828    0.55628    1.000
    Si1450   Si       0.27776    0.06705    0.59975    1.000
    N1451    N        0.23257    0.07268    0.50231    1.000
    Si1452   Si       0.25942    0.22601    0.52044    1.000
    N1453    N        0.23735    0.20119    0.59642    1.000
    Si1454   Si       0.23987    0.16650    0.56864    1.000
    N1455    N        0.23621    0.18995    0.53116    1.000
    N1456    N        0.24656    0.25312    0.54948    1.000
    N1457    N        0.26973    0.05535    0.72127    1.000
    Si1458   Si       0.26154    0.11300    0.65406    1.000
    N1459    N        0.25608    0.07491    0.63538    1.000
    Si1460   Si       0.23075    0.07119    0.70948    1.000
    N1461    N        0.22956    0.10745    0.68402    1.000
    Si1462   Si       0.27382    0.15255    0.74425    1.000
    Si1463   Si       0.24843    0.18530    0.63488    1.000
    N1464    N        0.26623    0.17179    0.70854    1.000
    N1465    N        0.24051    0.14218    0.62769    1.000
    N1466    N        0.26490    0.07421    0.79197    1.000
    N1467    N        0.25980    0.01502    0.82941    1.000
    Si1468   Si       0.27689    0.05626    0.82996    1.000
    N1469    N        0.26533    0.07608    0.86697    1.000
    Si1470   Si       0.22114    0.07655    0.78883    1.000
    N1471    N        0.23241    0.15650    0.76385    1.000
    N1472    N        0.25923    0.14849    0.82625    1.000
    Si1473   Si       0.25013    0.17921    0.79510    1.000
    N1474    N        0.23760    0.21588    0.81075    1.000
    Si1475   Si       0.24596    0.25841    0.81722    1.000
    N1476    N        0.25760    0.01779    0.91278    1.000
    Si1477   Si       0.23825    0.04949    0.89115    1.000
    Si1478   Si       0.24766    0.01588    0.95536    1.000
    N1479    N        0.22059    0.10479    0.99533    1.000
    N1480    N        0.22557    0.04396    0.98124    1.000
    Si1481   Si       0.27266    0.34891    0.07221    1.000
    N1482    N        0.23574    0.27639    0.09307    1.000
    Si1483   Si       0.26916    0.29124    0.11603    1.000
    Si1484   Si       0.24220    0.25880    0.01703    1.000
    N1485    N        0.28566    0.33019    0.03321    1.000
    N1486    N        0.28644    0.32888    0.10891    1.000
    Si1487   Si       0.25559    0.47849    0.12216    1.000
    N1488    N        0.22543    0.48095    0.01943    1.000
    N1489    N        0.26577    0.45761    0.08807    1.000
    Si1490   Si       0.24877    0.41813    0.08132    1.000
    N1491    N        0.28212    0.39109    0.07422    1.000
    Si1492   Si       0.27311    0.26237    0.18372    1.000
    N1493    N        0.25079    0.28213    0.15377    1.000
    N1494    N        0.25254    0.27330    0.22149    1.000
    Si1495   Si       0.22754    0.37955    0.20787    1.000
    N1496    N        0.24787    0.45390    0.15646    1.000
    Si1497   Si       0.26803    0.48842    0.23508    1.000
    Si1498   Si       0.27118    0.43373    0.18817    1.000
    N1499    N        0.26958    0.38874    0.19303    1.000
    N1500    N        0.25948    0.44810    0.22589    1.000
    N1501    N        0.23057    0.50864    0.24405    1.000
    N1502    N        0.26713    0.36344    0.30662    1.000
    N1503    N        0.26993    0.31000    0.34806    1.000
    Si1504   Si       0.22972    0.36079    0.28413    1.000
    Si1505   Si       0.23120    0.29976    0.36331    1.000
    N1506    N        0.22713    0.32093    0.26619    1.000
    Si1507   Si       0.26428    0.30711    0.24779    1.000
    Si1508   Si       0.26509    0.41936    0.25782    1.000
    N1509    N        0.26779    0.43158    0.29969    1.000
    N1510    N        0.23986    0.49628    0.31368    1.000
    Si1511   Si       0.27395    0.39887    0.32919    1.000
    N1512    N        0.25607    0.39222    0.36848    1.000
    Si1513   Si       0.27756    0.47320    0.30900    1.000
    N1514    N        0.23321    0.38923    0.25012    1.000
    N1515    N        0.26962    0.28159    0.47344    1.000
    Si1516   Si       0.26496    0.32264    0.48870    1.000
    Si1517   Si       0.22536    0.26458    0.46968    1.000
    N1518    N        0.23698    0.25724    0.37809    1.000
    Si1519   Si       0.22566    0.39692    0.47245    1.000
    N1520    N        0.23466    0.38840    0.43081    1.000
    N1521    N        0.27173    0.44917    0.41113    1.000
    N1522    N        0.25820    0.50047    0.44749    1.000
    Si1523   Si       0.26171    0.45801    0.45417    1.000
    Si1524   Si       0.27054    0.40608    0.40697    1.000
    N1525    N        0.26107    0.31183    0.59501    1.000
    N1526    N        0.24709    0.32086    0.53015    1.000
    Si1527   Si       0.26453    0.29129    0.55717    1.000
    Si1528   Si       0.24439    0.36371    0.54290    1.000
    N1529    N        0.27342    0.37756    0.57078    1.000
    N1530    N        0.25166    0.38514    0.50618    1.000
    N1531    N        0.23558    0.42845    0.60706    1.000
    N1532    N        0.26726    0.44131    0.54484    1.000
    Si1533   Si       0.27215    0.41941    0.58203    1.000
    N1534    N        0.27373    0.50248    0.58328    1.000
    Si1535   Si       0.27985    0.48509    0.54398    1.000
    Si1536   Si       0.23685    0.30021    0.62824    1.000
    Si1537   Si       0.25814    0.30197    0.68621    1.000
    Si1538   Si       0.26950    0.37377    0.66157    1.000
    N1539    N        0.25931    0.33152    0.65521    1.000
    N1540    N        0.24697    0.35496    0.72983    1.000
    N1541    N        0.23215    0.29182    0.72101    1.000
    N1542    N        0.24857    0.26786    0.66211    1.000
    Si1543   Si       0.23017    0.46318    0.63381    1.000
    N1544    N        0.24759    0.47561    0.71441    1.000
    N1545    N        0.23313    0.39168    0.67422    1.000
    N1546    N        0.26895    0.47754    0.64734    1.000
    Si1547   Si       0.28434    0.47833    0.68867    1.000
    Si1548   Si       0.26189    0.34993    0.82950    1.000
    Si1549   Si       0.23454    0.31905    0.75877    1.000
    N1550    N        0.26706    0.32785    0.78616    1.000
    N1551    N        0.22873    0.27554    0.78138    1.000
    N1552    N        0.28066    0.31671    0.84993    1.000
    N1553    N        0.25883    0.38988    0.85528    1.000
    Si1554   Si       0.24814    0.46384    0.81757    1.000
    N1555    N        0.26505    0.50244    0.82089    1.000
    Si1556   Si       0.24844    0.49684    0.75277    1.000
    N1557    N        0.22617    0.46620    0.77883    1.000
    N1558    N        0.28145    0.43859    0.81057    1.000
    N1559    N        0.24922    0.36431    0.96524    1.000
    N1560    N        0.26580    0.27190    0.98393    1.000
    Si1561   Si       0.26773    0.37661    0.89696    1.000
    Si1562   Si       0.24240    0.27371    0.94851    1.000
    N1563    N        0.27762    0.28333    0.92550    1.000
    N1564    N        0.24608    0.33704    0.89843    1.000
    Si1565   Si       0.27667    0.34938    0.99327    1.000
    Si1566   Si       0.28406    0.31498    0.89599    1.000
    Si1567   Si       0.26737    0.41025    0.96783    1.000
    N1568    N        0.27384    0.40967    0.92396    1.000
    N1569    N        0.24574    0.55221    0.08147    1.000
    N1570    N        0.26036    0.61789    0.07967    1.000
    N1571    N        0.25658    0.62040    0.00775    1.000
    N1572    N        0.24147    0.55009    0.01092    1.000
    Si1573   Si       0.27235    0.57972    0.00595    1.000
    Si1574   Si       0.23658    0.62807    0.04444    1.000
    Si1575   Si       0.28391    0.53882    0.09454    1.000
    Si1576   Si       0.22638    0.59047    0.09652    1.000
    Si1577   Si       0.24034    0.65924    0.09951    1.000
    Si1578   Si       0.24439    0.70253    0.03300    1.000
    N1579    N        0.26862    0.72654    0.05765    1.000
    N1580    N        0.27878    0.67818    0.11041    1.000
    N1581    N        0.22813    0.66824    0.05776    1.000
    N1582    N        0.28686    0.50895    0.20174    1.000
    N1583    N        0.24370    0.56944    0.21454    1.000
    N1584    N        0.24685    0.57722    0.13760    1.000
    Si1585   Si       0.23943    0.60499    0.23897    1.000
    N1586    N        0.27964    0.51266    0.13062    1.000
    Si1587   Si       0.28428    0.55309    0.20979    1.000
    N1588    N        0.26678    0.75040    0.12329    1.000
    N1589    N        0.26642    0.70198    0.17685    1.000
    Si1590   Si       0.23903    0.72415    0.20186    1.000
    Si1591   Si       0.29048    0.64859    0.19042    1.000
    Si1592   Si       0.26033    0.70949    0.13410    1.000
    N1593    N        0.25164    0.63862    0.20579    1.000
    N1594    N        0.26588    0.74406    0.22714    1.000
    N1595    N        0.25282    0.62155    0.32961    1.000
    Si1596   Si       0.23964    0.58279    0.31451    1.000
    Si1597   Si       0.24923    0.52811    0.34250    1.000
    N1598    N        0.27404    0.55755    0.32084    1.000
    N1599    N        0.27125    0.62347    0.26317    1.000
    Si1600   Si       0.27773    0.61604    0.36814    1.000
    Si1601   Si       0.26919    0.64811    0.29940    1.000
    Si1602   Si       0.27266    0.74966    0.33733    1.000
    N1603    N        0.23184    0.67429    0.30116    1.000
    N1604    N        0.27313    0.71172    0.35882    1.000
    N1605    N        0.22959    0.75523    0.33648    1.000
    N1606    N        0.27751    0.62803    0.45330    1.000
    Si1607   Si       0.27300    0.58864    0.43676    1.000
    Si1608   Si       0.27070    0.52747    0.47992    1.000
    N1609    N        0.25372    0.56586    0.46967    1.000
    N1610    N        0.25354    0.59522    0.39793    1.000
    Si1611   Si       0.22903    0.50939    0.41434    1.000
    N1612    N        0.25615    0.51153    0.37977    1.000
    Si1613   Si       0.27121    0.62789    0.49718    1.000
    N1614    N        0.26013    0.69571    0.43340    1.000
    Si1615   Si       0.22599    0.72091    0.44525    1.000
    Si1616   Si       0.25404    0.68583    0.39126    1.000
    Si1617   Si       0.25714    0.54208    0.58779    1.000
    N1618    N        0.23093    0.63139    0.51335    1.000
    N1619    N        0.25664    0.51016    0.51624    1.000
    N1620    N        0.28168    0.57886    0.59145    1.000
    Si1621   Si       0.22324    0.64322    0.61774    1.000
    Si1622   Si       0.23631    0.65057    0.55158    1.000
    N1623    N        0.24801    0.68120    0.60832    1.000
    N1624    N        0.24863    0.74626    0.58802    1.000
    N1625    N        0.27982    0.64520    0.55803    1.000
    N1626    N        0.28154    0.62641    0.70705    1.000
    N1627    N        0.23836    0.55033    0.62734    1.000
    N1628    N        0.24408    0.61712    0.64753    1.000
    Si1629   Si       0.26707    0.58104    0.63580    1.000
    Si1630   Si       0.27237    0.75497    0.62437    1.000
    Si1631   Si       0.24834    0.72038    0.68946    1.000
    Si1632   Si       0.26358    0.64585    0.67266    1.000
    N1633    N        0.24638    0.75184    0.66028    1.000
    N1634    N        0.23767    0.68020    0.67940    1.000
    N1635    N        0.26067    0.56510    0.84222    1.000
    Si1636   Si       0.24120    0.52551    0.84682    1.000
    N1637    N        0.24869    0.59846    0.76430    1.000
    N1638    N        0.23337    0.62690    0.82534    1.000
    Si1639   Si       0.28501    0.61157    0.74742    1.000
    Si1640   Si       0.24811    0.63792    0.78653    1.000
    N1641    N        0.23376    0.73007    0.83565    1.000
    N1642    N        0.26304    0.72045    0.76916    1.000
    Si1643   Si       0.26936    0.72842    0.85881    1.000
    Si1644   Si       0.25985    0.74530    0.80315    1.000
    N1645    N        0.25672    0.51375    0.95338    1.000
    N1646    N        0.25306    0.51358    0.88723    1.000
    Si1647   Si       0.23595    0.51322    0.99140    1.000
    Si1648   Si       0.25565    0.66633    0.90726    1.000
    N1649    N        0.25762    0.68919    0.99354    1.000
    N1650    N        0.23553    0.69681    0.93239    1.000
    Si1651   Si       0.26638    0.71376    0.95989    1.000
    N1652    N        0.27840    0.69053    0.87481    1.000
    Si1653   Si       0.24769    0.64950    0.97519    1.000
    N1654    N        0.27032    0.63972    0.93875    1.000
    N1655    N        0.26238    0.86602    0.09463    1.000
    N1656    N        0.24045    0.78970    0.08096    1.000
    Si1657   Si       0.23737    0.80643    0.04186    1.000
    N1658    N        0.23180    0.77963    0.00815    1.000
    N1659    N        0.27777    0.82013    0.03343    1.000
    N1660    N        0.26962    0.88384    0.02682    1.000
    Si1661   Si       0.27575    0.76093    0.08095    1.000
    N1662    N        0.26350    0.94861    0.06322    1.000
    Si1663   Si       0.24919    0.92098    0.03368    1.000
    Si1664   Si       0.23578    0.98182    0.06836    1.000
    N1665    N        0.25267    0.00968    0.09606    1.000
    Si1666   Si       0.23088    0.78055    0.12266    1.000
    N1667    N        0.24992    0.80093    0.15680    1.000
    N1668    N        0.24652    0.84503    0.21396    1.000
    Si1669   Si       0.25261    0.88265    0.13202    1.000
    Si1670   Si       0.22745    0.83044    0.17705    1.000
    Si1671   Si       0.27092    0.88067    0.20701    1.000
    N1672    N        0.28188    0.88428    0.16580    1.000
    N1673    N        0.25942    0.92172    0.21925    1.000
    N1674    N        0.26063    0.99212    0.21193    1.000
    N1675    N        0.24896    0.92719    0.13284    1.000
    N1676    N        0.25161    0.85214    0.27909    1.000
    N1677    N        0.23438    0.78776    0.26870    1.000
    Si1678   Si       0.27477    0.77074    0.26183    1.000
    Si1679   Si       0.22897    0.82814    0.25171    1.000
    Si1680   Si       0.22387    0.88272    0.29888    1.000
    N1681    N        0.25011    0.90457    0.32330    1.000
    Si1682   Si       0.26116    0.94773    0.32144    1.000
    N1683    N        0.26061    0.96757    0.36171    1.000
    N1684    N        0.23505    0.96043    0.28822    1.000
    Si1685   Si       0.22923    0.94143    0.24752    1.000
    N1686    N        0.26082    0.84652    0.38176    1.000
    N1687    N        0.25989    0.82384    0.48176    1.000
    Si1688   Si       0.26520    0.80438    0.39127    1.000
    Si1689   Si       0.27223    0.78464    0.46514    1.000
    Si1690   Si       0.22619    0.87409    0.39716    1.000
    N1691    N        0.22465    0.78847    0.39433    1.000
    N1692    N        0.23521    0.76047    0.46128    1.000
    Si1693   Si       0.28472    0.94153    0.46530    1.000
    Si1694   Si       0.25064    0.94706    0.39848    1.000
    N1695    N        0.25459    0.90474    0.40488    1.000
    N1696    N        0.28008    0.96293    0.42547    1.000
    N1697    N        0.23722    0.95218    0.47003    1.000
    N1698    N        0.28035    0.90369    0.48839    1.000
    N1699    N        0.25560    0.85782    0.53868    1.000
    Si1700   Si       0.23800    0.84406    0.57564    1.000
    Si1701   Si       0.24395    0.77352    0.55379    1.000
    N1702    N        0.27124    0.85578    0.60211    1.000
    N1703    N        0.27974    0.79075    0.53844    1.000
    Si1704   Si       0.27985    0.82911    0.51841    1.000
    N1705    N        0.26442    0.97988    0.57411    1.000
    Si1706   Si       0.26445    0.89824    0.52878    1.000
    N1707    N        0.23515    0.92844    0.53313    1.000
    N1708    N        0.27242    0.92995    0.62267    1.000
    N1709    N        0.26281    0.79265    0.71381    1.000
    Si1710   Si       0.23690    0.79020    0.67865    1.000
    N1711    N        0.23890    0.82650    0.65662    1.000
    N1712    N        0.26694    0.87690    0.72368    1.000
    Si1713   Si       0.27881    0.83717    0.63969    1.000
    Si1714   Si       0.23887    0.94318    0.73065    1.000
    Si1715   Si       0.25933    0.89533    0.68471    1.000
    N1716    N        0.26080    0.93955    0.69178    1.000
    Si1717   Si       0.23106    0.93633    0.63923    1.000
    N1718    N        0.24136    0.78202    0.78966    1.000
    Si1719   Si       0.24537    0.86713    0.83393    1.000
    Si1720   Si       0.23838    0.87593    0.75554    1.000
    Si1721   Si       0.25695    0.80684    0.75397    1.000
    N1722    N        0.28522    0.85211    0.84349    1.000
    N1723    N        0.25474    0.88287    0.79431    1.000
    N1724    N        0.27129    0.94469    0.82455    1.000
    N1725    N        0.27287    0.94217    0.75864    1.000
    Si1726   Si       0.23517    0.94331    0.84813    1.000
    Si1727   Si       0.28007    0.91917    0.79295    1.000
    Si1728   Si       0.26422    0.86645    0.98699    1.000
    N1729    N        0.23350    0.80953    0.90133    1.000
    N1730    N        0.26503    0.82732    0.96651    1.000
    Si1731   Si       0.24146    0.76675    0.90944    1.000
    Si1732   Si       0.26011    0.83506    0.92338    1.000
    Si1733   Si       0.26368    0.78554    0.97949    1.000
    N1734    N        0.25371    0.87764    0.91853    1.000
    N1735    N        0.27879    0.76016    0.88606    1.000
    N1736    N        0.25490    0.75518    0.94824    1.000
    Si1737   Si       0.27405    0.97847    0.90366    1.000
    N1738    N        0.23779    0.96247    0.88610    1.000
    Si1739   Si       0.28202    0.95699    0.97407    1.000
    N1740    N        0.24781    0.94207    0.99564    1.000
    N1741    N        0.28649    0.00065    0.97230    1.000
    N1742    N        0.32152    0.10147    0.07673    1.000
    N1743    N        0.32436    0.03068    0.08747    1.000
    Si1744   Si       0.32028    0.07817    0.00324    1.000
    N1745    N        0.28356    0.07448    0.02408    1.000
    Si1746   Si       0.28450    0.10263    0.05846    1.000
    Si1747   Si       0.31108    0.15773    0.02256    1.000
    Si1748   Si       0.31728    0.22776    0.10404    1.000
    Si1749   Si       0.31164    0.23356    0.03295    1.000
    N1750    N        0.31309    0.19849    0.00622    1.000
    N1751    N        0.33988    0.22835    0.06596    1.000
    Si1752   Si       0.29670    0.01853    0.12123    1.000
    Si1753   Si       0.33497    0.13010    0.16546    1.000
    N1754    N        0.32320    0.08917    0.16241    1.000
    N1755    N        0.33308    0.02117    0.14922    1.000
    N1756    N        0.29195    0.05506    0.21662    1.000
    Si1757   Si       0.28644    0.07101    0.17592    1.000
    N1758    N        0.33764    0.21279    0.13878    1.000
    Si1759   Si       0.31973    0.20091    0.17599    1.000
    N1760    N        0.30732    0.15978    0.17882    1.000
    N1761    N        0.32387    0.06804    0.34536    1.000
    N1762    N        0.30864    0.02395    0.26760    1.000
    Si1763   Si       0.31091    0.06732    0.25486    1.000
    Si1764   Si       0.28400    0.07503    0.32659    1.000
    Si1765   Si       0.34470    0.23968    0.34060    1.000
    N1766    N        0.31081    0.22283    0.28103    1.000
    N1767    N        0.30111    0.23811    0.34727    1.000
    N1768    N        0.29115    0.17031    0.32649    1.000
    Si1769   Si       0.33282    0.15844    0.33969    1.000
    Si1770   Si       0.28600    0.21240    0.31485    1.000
    N1771    N        0.29583    0.02045    0.39578    1.000
    N1772    N        0.32667    0.07728    0.41735    1.000
    N1773    N        0.29236    0.03572    0.46311    1.000
    Si1774   Si       0.32819    0.05018    0.38490    1.000
    Si1775   Si       0.29036    0.07089    0.43653    1.000
    N1776    N        0.28637    0.10854    0.46166    1.000
    Si1777   Si       0.30519    0.20246    0.42621    1.000
    N1778    N        0.29705    0.17563    0.46009    1.000
    N1779    N        0.32747    0.14968    0.38116    1.000
    N1780    N        0.30033    0.24700    0.42204    1.000
    N1781    N        0.30299    0.10537    0.59785    1.000
    Si1782   Si       0.32278    0.05953    0.55943    1.000
    N1783    N        0.30983    0.04025    0.59789    1.000
    N1784    N        0.29291    0.08431    0.53611    1.000
    N1785    N        0.33141    0.03154    0.52788    1.000
    Si1786   Si       0.30391    0.01499    0.50127    1.000
    Si1787   Si       0.30647    0.10634    0.50032    1.000
    Si1788   Si       0.29760    0.13092    0.56234    1.000
    Si1789   Si       0.32406    0.24865    0.52491    1.000
    N1790    N        0.31093    0.14313    0.52193    1.000
    N1791    N        0.29943    0.21555    0.51596    1.000
    N1792    N        0.29511    0.17238    0.58010    1.000
    Si1793   Si       0.31703    0.19121    0.61378    1.000
    N1794    N        0.33593    0.23025    0.61997    1.000
    Si1795   Si       0.31672    0.18057    0.49926    1.000
    Si1796   Si       0.32811    0.12409    0.62894    1.000
    Si1797   Si       0.30580    0.03330    0.71223    1.000
    N1798    N        0.32435    0.04563    0.67239    1.000
    N1799    N        0.30399    0.12068    0.66453    1.000
    Si1800   Si       0.32030    0.12072    0.70474    1.000
    Si1801   Si       0.32099    0.02195    0.63594    1.000
    N1802    N        0.29687    0.11531    0.74075    1.000
    N1803    N        0.32237    0.23012    0.69530    1.000
    Si1804   Si       0.30212    0.18942    0.68852    1.000
    N1805    N        0.33398    0.16456    0.70705    1.000
    N1806    N        0.28938    0.19325    0.64692    1.000
    N1807    N        0.31975    0.05141    0.82404    1.000
    Si1808   Si       0.33618    0.02928    0.78877    1.000
    N1809    N        0.32457    0.04648    0.75162    1.000
    Si1810   Si       0.29015    0.07549    0.75647    1.000
    N1811    N        0.34173    0.11665    0.82349    1.000
    Si1812   Si       0.31000    0.22431    0.84519    1.000
    N1813    N        0.31929    0.18541    0.82808    1.000
    Si1814   Si       0.32999    0.18785    0.78585    1.000
    Si1815   Si       0.30526    0.14487    0.83595    1.000
    N1816    N        0.28856    0.18133    0.77227    1.000
    N1817    N        0.34174    0.22807    0.77449    1.000
    N1818    N        0.28874    0.25844    0.82968    1.000
    Si1819   Si       0.29269    0.10148    0.89037    1.000
    N1820    N        0.33023    0.07807    0.88589    1.000
    N1821    N        0.32727    0.05963    0.96333    1.000
    Si1822   Si       0.32549    0.01523    0.96434    1.000
    N1823    N        0.28890    0.10754    0.93325    1.000
    N1824    N        0.32158    0.12284    0.99576    1.000
    Si1825   Si       0.31895    0.13214    0.95386    1.000
    N1826    N        0.30743    0.21957    0.88832    1.000
    Si1827   Si       0.31114    0.25771    0.91033    1.000
    Si1828   Si       0.33375    0.20649    0.96846    1.000
    N1829    N        0.32059    0.17515    0.94131    1.000
    N1830    N        0.30535    0.14195    0.87952    1.000
    Si1831   Si       0.32347    0.17842    0.89805    1.000
    N1832    N        0.32305    0.24419    0.94970    1.000
    Si1833   Si       0.32591    0.30901    0.10100    1.000
    N1834    N        0.32417    0.27050    0.01246    1.000
    Si1835   Si       0.32461    0.31131    0.02372    1.000
    N1836    N        0.30688    0.27110    0.10839    1.000
    N1837    N        0.33908    0.32104    0.06364    1.000
    Si1838   Si       0.30451    0.40454    0.04086    1.000
    Si1839   Si       0.30468    0.46804    0.07199    1.000
    N1840    N        0.30961    0.44621    0.03617    1.000
    N1841    N        0.32653    0.45155    0.10612    1.000
    N1842    N        0.28881    0.39079    0.00232    1.000
    N1843    N        0.33627    0.27108    0.24114    1.000
    Si1844   Si       0.30354    0.37350    0.21763    1.000
    N1845    N        0.29514    0.33139    0.22461    1.000
    Si1846   Si       0.32676    0.30322    0.21566    1.000
    N1847    N        0.31152    0.28251    0.18165    1.000
    N1848    N        0.34261    0.37906    0.19922    1.000
    Si1849   Si       0.33804    0.45636    0.14744    1.000
    N1850    N        0.31340    0.44077    0.18045    1.000
    N1851    N        0.34592    0.49934    0.15805    1.000
    N1852    N        0.32983    0.33462    0.32140    1.000
    Si1853   Si       0.28814    0.32624    0.31470    1.000
    N1854    N        0.29154    0.29720    0.28138    1.000
    Si1855   Si       0.31951    0.26509    0.27919    1.000
    N1856    N        0.31774    0.40338    0.33748    1.000
    N1857    N        0.29920    0.47266    0.34587    1.000
    N1858    N        0.29339    0.49250    0.27184    1.000
    Si1859   Si       0.33195    0.44565    0.33946    1.000
    N1860    N        0.30658    0.40277    0.25112    1.000
    Si1861   Si       0.30800    0.27563    0.45165    1.000
    N1862    N        0.32661    0.30934    0.43202    1.000
    Si1863   Si       0.31727    0.35051    0.44270    1.000
    N1864    N        0.30102    0.34291    0.48193    1.000
    N1865    N        0.33637    0.26041    0.48439    1.000
    N1866    N        0.32360    0.49676    0.41249    1.000
    Si1867   Si       0.32448    0.41305    0.45450    1.000
    N1868    N        0.30457    0.38664    0.42474    1.000
    N1869    N        0.29100    0.43285    0.47484    1.000
    Si1870   Si       0.28871    0.48260    0.38803    1.000
    N1871    N        0.30776    0.28037    0.54995    1.000
    N1872    N        0.32588    0.32557    0.59850    1.000
    Si1873   Si       0.28779    0.34752    0.60147    1.000
    Si1874   Si       0.33498    0.36086    0.50347    1.000
    Si1875   Si       0.33994    0.30473    0.56306    1.000
    N1876    N        0.30662    0.44126    0.60122    1.000
    N1877    N        0.32258    0.39888    0.52293    1.000
    N1878    N        0.32022    0.48456    0.53277    1.000
    Si1879   Si       0.29912    0.48315    0.61548    1.000
    Si1880   Si       0.28347    0.41579    0.51371    1.000
    N1881    N        0.29552    0.31121    0.70255    1.000
    Si1882   Si       0.28978    0.35006    0.72406    1.000
    N1883    N        0.29603    0.38250    0.69549    1.000
    Si1884   Si       0.33973    0.30398    0.69635    1.000
    N1885    N        0.29812    0.38136    0.62796    1.000
    Si1886   Si       0.33169    0.40956    0.62040    1.000
    Si1887   Si       0.32456    0.48559    0.73123    1.000
    Si1888   Si       0.32609    0.41176    0.69776    1.000
    N1889    N        0.31048    0.44981    0.70744    1.000
    Si1890   Si       0.30868    0.33865    0.79115    1.000
    Si1891   Si       0.31573    0.29045    0.84219    1.000
    N1892    N        0.32185    0.34963    0.75146    1.000
    N1893    N        0.29806    0.37189    0.81400    1.000
    N1894    N        0.33759    0.31430    0.81259    1.000
    N1895    N        0.33336    0.41525    0.85595    1.000
    Si1896   Si       0.29564    0.40782    0.83556    1.000
    N1897    N        0.29146    0.50133    0.75698    1.000
    N1898    N        0.33812    0.49920    0.81052    1.000
    Si1899   Si       0.30532    0.27927    0.96932    1.000
    N1900    N        0.32575    0.29499    0.88711    1.000
    N1901    N        0.31319    0.32688    0.97877    1.000
    N1902    N        0.30582    0.35230    0.90385    1.000
    Si1903   Si       0.34403    0.44886    0.88150    1.000
    Si1904   Si       0.29959    0.44583    0.92402    1.000
    N1905    N        0.29285    0.44986    0.96681    1.000
    N1906    N        0.34203    0.43375    0.92196    1.000
    N1907    N        0.30452    0.47043    0.88806    1.000
    Si1908   Si       0.31746    0.46666    0.99729    1.000
    Si1909   Si       0.32270    0.53249    0.03450    1.000
    N1910    N        0.31009    0.57229    0.10674    1.000
    N1911    N        0.30152    0.57354    0.03847    1.000
    Si1912   Si       0.30009    0.60015    0.07291    1.000
    N1913    N        0.30762    0.51150    0.06884    1.000
    N1914    N        0.32470    0.63341    0.08027    1.000
    Si1915   Si       0.31233    0.65266    0.11862    1.000
    N1916    N        0.31754    0.62053    0.21654    1.000
    N1917    N        0.30892    0.56373    0.17600    1.000
    Si1918   Si       0.30706    0.51782    0.16414    1.000
    Si1919   Si       0.34134    0.59478    0.18786    1.000
    N1920    N        0.29875    0.62792    0.15317    1.000
    Si1921   Si       0.29080    0.58573    0.14283    1.000
    N1922    N        0.31118    0.75337    0.17673    1.000
    N1923    N        0.32042    0.68132    0.20198    1.000
    N1924    N        0.33050    0.73162    0.24194    1.000
    Si1925   Si       0.30201    0.72315    0.20720    1.000
    N1926    N        0.31516    0.59834    0.35645    1.000
    Si1927   Si       0.31556    0.57275    0.32195    1.000
    Si1928   Si       0.32236    0.52584    0.27010    1.000
    N1929    N        0.32567    0.60278    0.29131    1.000
    Si1930   Si       0.30712    0.59964    0.25261    1.000
    N1931    N        0.33920    0.53760    0.30829    1.000
    N1932    N        0.30424    0.55712    0.24734    1.000
    Si1933   Si       0.30559    0.68301    0.35449    1.000
    N1934    N        0.30560    0.66555    0.31458    1.000
    Si1935   Si       0.33218    0.74181    0.28602    1.000
    N1936    N        0.28962    0.74937    0.29782    1.000
    N1937    N        0.34219    0.69846    0.37101    1.000
    N1938    N        0.31590    0.53143    0.47953    1.000
    Si1939   Si       0.32599    0.53213    0.43718    1.000
    N1940    N        0.31073    0.57199    0.42912    1.000
    N1941    N        0.28646    0.65530    0.38285    1.000
    Si1942   Si       0.28973    0.67025    0.45354    1.000
    N1943    N        0.32852    0.67624    0.43910    1.000
    N1944    N        0.33462    0.74957    0.41472    1.000
    N1945    N        0.28792    0.67108    0.49768    1.000
    Si1946   Si       0.29771    0.60670    0.56184    1.000
    N1947    N        0.29342    0.59724    0.51810    1.000
    Si1948   Si       0.32256    0.57178    0.50035    1.000
    N1949    N        0.30376    0.72247    0.54330    1.000
    N1950    N        0.32560    0.68192    0.58279    1.000
    Si1951   Si       0.30454    0.67704    0.53722    1.000
    Si1952   Si       0.29329    0.68435    0.61248    1.000
    N1953    N        0.31682    0.51170    0.69545    1.000
    N1954    N        0.33008    0.51030    0.62573    1.000
    Si1955   Si       0.32940    0.53664    0.66180    1.000
    N1956    N        0.31427    0.58322    0.73485    1.000
    N1957    N        0.29945    0.56920    0.66213    1.000
    Si1958   Si       0.31064    0.59728    0.69310    1.000
    Si1959   Si       0.30019    0.72444    0.74688    1.000
    Si1960   Si       0.31703    0.72262    0.67347    1.000
    N1961    N        0.29973    0.72323    0.63280    1.000
    N1962    N        0.30023    0.65822    0.64681    1.000
    N1963    N        0.28891    0.72108    0.70350    1.000
    N1964    N        0.30996    0.55744    0.80066    1.000
    N1965    N        0.32086    0.61077    0.84461    1.000
    Si1966   Si       0.30319    0.57085    0.83993    1.000
    N1967    N        0.32223    0.54007    0.86477    1.000
    Si1968   Si       0.33764    0.57208    0.77108    1.000
    Si1969   Si       0.29860    0.51505    0.79796    1.000
    Si1970   Si       0.32393    0.63547    0.80815    1.000
    N1971    N        0.29023    0.64099    0.77858    1.000
    N1972    N        0.29620    0.73843    0.82541    1.000
    Si1973   Si       0.32158    0.68625    0.86394    1.000
    Si1974   Si       0.33479    0.74999    0.84089    1.000
    N1975    N        0.33690    0.67506    0.82296    1.000
    N1976    N        0.33485    0.70013    0.75756    1.000
    N1977    N        0.29455    0.57627    0.96919    1.000
    Si1978   Si       0.29653    0.53120    0.96349    1.000
    N1979    N        0.31846    0.52609    0.92631    1.000
    Si1980   Si       0.30436    0.61275    0.94522    1.000
    N1981    N        0.32586    0.59424    0.91114    1.000
    Si1982   Si       0.34048    0.55530    0.90383    1.000
    Si1983   Si       0.29465    0.51205    0.89138    1.000
    N1984    N        0.31270    0.50974    0.00042    1.000
    Si1985   Si       0.33676    0.67798    0.93620    1.000
    N1986    N        0.33443    0.64258    0.96266    1.000
    N1987    N        0.33280    0.66036    0.89691    1.000
    N1988    N        0.30782    0.71229    0.94987    1.000
    Si1989   Si       0.32884    0.75259    0.95854    1.000
    N1990    N        0.34476    0.72255    0.87332    1.000
    Si1991   Si       0.31266    0.79476    0.02501    1.000
    N1992    N        0.32493    0.85633    0.06565    1.000
    N1993    N        0.31222    0.76913    0.06018    1.000
    Si1994   Si       0.28260    0.85605    0.05804    1.000
    N1995    N        0.31144    0.91378    0.10994    1.000
    Si1996   Si       0.29928    0.95083    0.08828    1.000
    N1997    N        0.32920    0.96647    0.06201    1.000
    N1998    N        0.31287    0.94377    0.00005    1.000
    Si1999   Si       0.34083    0.88251    0.09676    1.000
    Si2000   Si       0.34059    0.96855    0.02071    1.000
    N2001    N        0.31082    0.80166    0.12391    1.000
    N2002    N        0.30627    0.86975    0.23091    1.000
    Si2003   Si       0.28671    0.77856    0.15133    1.000
    N2004    N        0.32027    0.96433    0.23626    1.000
    Si2005   Si       0.34174    0.97791    0.15319    1.000
    Si2006   Si       0.29080    0.92689    0.14698    1.000
    N2007    N        0.30301    0.97451    0.12369    1.000
    N2008    N        0.31629    0.94285    0.17911    1.000
    Si2009   Si       0.28602    0.95699    0.21074    1.000
    N2010    N        0.31369    0.86594    0.30514    1.000
    Si2011   Si       0.29583    0.84924    0.26873    1.000
    N2012    N        0.30110    0.80677    0.25815    1.000
    N2013    N        0.28833    0.77770    0.36572    1.000
    Si2014   Si       0.29599    0.89868    0.32641    1.000
    N2015    N        0.30370    0.94117    0.31333    1.000
    Si2016   Si       0.33939    0.99680    0.25928    1.000
    N2017    N        0.31123    0.89601    0.36611    1.000
    Si2018   Si       0.32926    0.77732    0.38118    1.000
    N2019    N        0.30601    0.86548    0.43273    1.000
    Si2020   Si       0.32222    0.82592    0.42761    1.000
    Si2021   Si       0.28808    0.87814    0.39584    1.000
    N2022    N        0.30629    0.76296    0.48341    1.000
    N2023    N        0.28727    0.80023    0.42790    1.000
    N2024    N        0.33585    0.82057    0.38829    1.000
    Si2025   Si       0.31807    0.88270    0.47408    1.000
    Si2026   Si       0.33772    0.76657    0.45516    1.000
    Si2027   Si       0.30492    0.99768    0.43562    1.000
    N2028    N        0.32947    0.92487    0.45696    1.000
    N2029    N        0.30849    0.97693    0.48143    1.000
    N2030    N        0.31506    0.85441    0.50835    1.000
    Si2031   Si       0.31104    0.76069    0.52747    1.000
    N2032    N        0.32928    0.88744    0.61349    1.000
    Si2033   Si       0.28917    0.89693    0.60116    1.000
    Si2034   Si       0.33616    0.92245    0.55940    1.000
    N2035    N        0.32695    0.95674    0.58647    1.000
    N2036    N        0.29500    0.90808    0.55857    1.000
    Si2037   Si       0.29013    0.96773    0.60788    1.000
    N2038    N        0.28956    0.87248    0.66328    1.000
    Si2039   Si       0.33429    0.78840    0.63857    1.000
    Si2040   Si       0.30398    0.85559    0.72971    1.000
    Si2041   Si       0.30577    0.78452    0.70915    1.000
    N2042    N        0.32345    0.82430    0.70622    1.000
    N2043    N        0.29178    0.79624    0.63273    1.000
    N2044    N        0.33273    0.76416    0.67614    1.000
    N2045    N        0.33685    0.88210    0.73959    1.000
    N2046    N        0.31486    0.76381    0.74560    1.000
    N2047    N        0.32842    0.93094    0.68124    1.000
    Si2048   Si       0.29673    0.96158    0.68227    1.000
    N2049    N        0.30251    0.98968    0.71662    1.000
    N2050    N        0.29562    0.98825    0.64544    1.000
    Si2051   Si       0.32746    0.89383    0.65745    1.000
    Si2052   Si       0.30243    0.85405    0.80187    1.000
    N2053    N        0.33499    0.79090    0.85457    1.000
    N2054    N        0.29101    0.83274    0.76607    1.000
    N2055    N        0.31615    0.89603    0.80163    1.000
    N2056    N        0.31335    0.99115    0.79208    1.000
    Si2057   Si       0.31005    0.96883    0.75447    1.000
    Si2058   Si       0.29060    0.98352    0.82977    1.000
    N2059    N        0.30173    0.98437    0.87149    1.000
    Si2060   Si       0.31114    0.86007    0.87754    1.000
    N2061    N        0.30304    0.77156    0.98943    1.000
    N2062    N        0.29845    0.82753    0.90417    1.000
    Si2063   Si       0.31270    0.78799    0.89216    1.000
    N2064    N        0.34062    0.77989    0.92384    1.000
    Si2065   Si       0.34327    0.98660    0.88385    1.000
    Si2066   Si       0.28637    0.90524    0.92872    1.000
    N2067    N        0.28232    0.94654    0.93257    1.000
    N2068    N        0.29626    0.88823    0.96753    1.000
    Si2069   Si       0.33088    0.90668    0.98645    1.000
    N2070    N        0.31997    0.89623    0.90185    1.000
    N2071    N        0.37270    0.06526    0.10936    1.000
    N2072    N        0.35190    0.06184    0.03118    1.000
    Si2073   Si       0.37817    0.02712    0.02160    1.000
    N2074    N        0.39091    0.12408    0.07254    1.000
    Si2075   Si       0.34569    0.06583    0.07487    1.000
    N2076    N        0.38672    0.00720    0.06070    1.000
    Si2077   Si       0.35069    0.13151    0.08502    1.000
    N2078    N        0.39780    0.25208    0.02845    1.000
    N2079    N        0.39291    0.24415    0.10309    1.000
    Si2080   Si       0.38947    0.15566    0.04144    1.000
    Si2081   Si       0.38282    0.23122    0.06350    1.000
    N2082    N        0.34638    0.15674    0.04771    1.000
    N2083    N        0.39035    0.06399    0.16823    1.000
    Si2084   Si       0.35223    0.05929    0.14755    1.000
    N2085    N        0.37237    0.02120    0.24298    1.000
    Si2086   Si       0.36798    0.24571    0.22752    1.000
    Si2087   Si       0.37946    0.22443    0.13821    1.000
    Si2088   Si       0.39013    0.15205    0.14894    1.000
    N2089    N        0.34938    0.21019    0.20742    1.000
    N2090    N        0.37009    0.14336    0.18823    1.000
    Si2091   Si       0.37169    0.17268    0.22218    1.000
    N2092    N        0.35246    0.14119    0.12675    1.000
    N2093    N        0.37848    0.25832    0.16591    1.000
    Si2094   Si       0.36164    0.08442    0.33223    1.000
    Si2095   Si       0.38438    0.05876    0.26380    1.000
    Si2096   Si       0.36141    0.12262    0.27545    1.000
    N2097    N        0.38315    0.05581    0.30799    1.000
    N2098    N        0.39001    0.09514    0.36361    1.000
    N2099    N        0.34890    0.08415    0.25931    1.000
    N2100    N        0.34701    0.12441    0.31604    1.000
    N2101    N        0.35288    0.19758    0.32586    1.000
    N2102    N        0.37759    0.22230    0.26636    1.000
    N2103    N        0.38093    0.23836    0.36615    1.000
    Si2104   Si       0.39165    0.19945    0.34899    1.000
    N2105    N        0.35209    0.16180    0.25917    1.000
    Si2106   Si       0.34569    0.19739    0.28142    1.000
    Si2107   Si       0.35452    0.09689    0.44525    1.000
    N2108    N        0.37005    0.03241    0.38366    1.000
    N2109    N        0.39256    0.07735    0.43590    1.000
    N2110    N        0.34476    0.09395    0.48641    1.000
    Si2111   Si       0.39746    0.06501    0.39373    1.000
    N2112    N        0.36684    0.13981    0.44318    1.000
    Si2113   Si       0.38626    0.15243    0.48069    1.000
    Si2114   Si       0.38246    0.22775    0.40787    1.000
    N2115    N        0.39049    0.16854    0.37774    1.000
    N2116    N        0.34907    0.20239    0.41715    1.000
    Si2117   Si       0.35834    0.16194    0.40794    1.000
    N2118    N        0.36079    0.18545    0.49599    1.000
    N2119    N        0.35841    0.08581    0.55921    1.000
    Si2120   Si       0.37303    0.09061    0.51865    1.000
    Si2121   Si       0.38545    0.09636    0.59200    1.000
    Si2122   Si       0.37391    0.02317    0.52287    1.000
    N2123    N        0.39646    0.12710    0.51576    1.000
    N2124    N        0.39950    0.05811    0.50767    1.000
    Si2125   Si       0.38793    0.20980    0.52131    1.000
    Si2126   Si       0.36595    0.24075    0.59044    1.000
    N2127    N        0.36028    0.23300    0.54713    1.000
    Si2128   Si       0.39066    0.17073    0.61536    1.000
    N2129    N        0.34861    0.16200    0.62355    1.000
    N2130    N        0.39966    0.21349    0.60210    1.000
    N2131    N        0.39441    0.04584    0.67167    1.000
    N2132    N        0.36213    0.09547    0.62895    1.000
    Si2133   Si       0.35984    0.07084    0.66635    1.000
    N2134    N        0.35827    0.09937    0.69871    1.000
    Si2135   Si       0.39456    0.10670    0.72112    1.000
    Si2136   Si       0.39679    0.00840    0.64937    1.000
    Si2137   Si       0.34629    0.23695    0.73253    1.000
    N2138    N        0.38089    0.21417    0.72796    1.000
    Si2139   Si       0.34615    0.24550    0.66016    1.000
    Si2140   Si       0.37057    0.17244    0.72844    1.000
    N2141    N        0.38969    0.23971    0.66532    1.000
    N2142    N        0.37926    0.03367    0.79134    1.000
    N2143    N        0.38492    0.06427    0.85199    1.000
    Si2144   Si       0.37041    0.12497    0.79348    1.000
    N2145    N        0.38472    0.09573    0.76251    1.000
    Si2146   Si       0.39479    0.02640    0.83122    1.000
    Si2147   Si       0.34507    0.07822    0.84581    1.000
    N2148    N        0.35770    0.15908    0.76935    1.000
    N2149    N        0.34830    0.24409    0.84164    1.000
    Si2150   Si       0.37184    0.23930    0.80565    1.000
    Si2151   Si       0.37780    0.21200    0.86285    1.000
    N2152    N        0.39518    0.20564    0.82340    1.000
    N2153    N        0.38443    0.04890    0.91932    1.000
    N2154    N        0.35630    0.11723    0.93352    1.000
    Si2155   Si       0.34559    0.07507    0.92691    1.000
    Si2156   Si       0.38168    0.14161    0.90974    1.000
    N2157    N        0.36716    0.17864    0.88948    1.000
    N2158    N        0.37633    0.20338    0.97474    1.000
    Si2159   Si       0.36706    0.35151    0.05272    1.000
    N2160    N        0.37268    0.32766    0.01416    1.000
    N2161    N        0.39705    0.35376    0.08514    1.000
    Si2162   Si       0.40323    0.29476    0.01354    1.000
    N2163    N        0.34486    0.38852    0.04494    1.000
    Si2164   Si       0.36690    0.41036    0.01392    1.000
    N2165    N        0.39077    0.48169    0.06824    1.000
    Si2166   Si       0.39484    0.33397    0.12321    1.000
    N2167    N        0.35680    0.31551    0.13008    1.000
    Si2168   Si       0.37859    0.35470    0.19623    1.000
    N2169    N        0.36189    0.31703    0.19734    1.000
    Si2170   Si       0.35046    0.29138    0.16436    1.000
    N2171    N        0.40180    0.35951    0.15738    1.000
    N2172    N        0.37135    0.43228    0.15872    1.000
    Si2173   Si       0.34912    0.42102    0.19574    1.000
    N2174    N        0.36810    0.43352    0.23256    1.000
    Si2175   Si       0.36229    0.30961    0.31424    1.000
    N2176    N        0.39129    0.32688    0.28467    1.000
    N2177    N        0.38572    0.30852    0.35117    1.000
    N2178    N        0.38102    0.37847    0.35229    1.000
    Si2179   Si       0.34743    0.37560    0.32554    1.000
    N2180    N        0.34910    0.26887    0.31191    1.000
    N2181    N        0.36278    0.38629    0.28413    1.000
    Si2182   Si       0.37263    0.48611    0.28794    1.000
    N2183    N        0.38838    0.49967    0.32696    1.000
    N2184    N        0.34616    0.45280    0.29769    1.000
    Si2185   Si       0.39191    0.41657    0.37117    1.000
    Si2186   Si       0.34313    0.42112    0.26708    1.000
    N2187    N        0.35791    0.44602    0.37351    1.000
    N2188    N        0.38145    0.30918    0.47736    1.000
    Si2189   Si       0.37007    0.30894    0.43404    1.000
    N2190    N        0.38326    0.34235    0.41175    1.000
    Si2191   Si       0.38709    0.37679    0.43691    1.000
    Si2192   Si       0.37673    0.26533    0.47524    1.000
    N2193    N        0.37668    0.26504    0.43166    1.000
    N2194    N        0.35028    0.37652    0.46248    1.000
    Si2195   Si       0.35667    0.46761    0.41229    1.000
    N2196    N        0.39131    0.49416    0.41445    1.000
    Si2197   Si       0.37999    0.45506    0.48312    1.000
    N2198    N        0.35599    0.44044    0.44731    1.000
    N2199    N        0.37349    0.49764    0.48362    1.000
    N2200    N        0.37308    0.28477    0.58667    1.000
    Si2201   Si       0.39210    0.33558    0.51089    1.000
    N2202    N        0.38822    0.37863    0.51930    1.000
    N2203    N        0.34868    0.33167    0.53071    1.000
    Si2204   Si       0.39455    0.38527    0.60718    1.000
    Si2205   Si       0.36133    0.40530    0.54340    1.000
    N2206    N        0.35752    0.39934    0.58627    1.000
    N2207    N        0.38804    0.47581    0.58550    1.000
    N2208    N        0.37905    0.44193    0.52696    1.000
    Si2209   Si       0.36104    0.31223    0.62276    1.000
    N2210    N        0.35690    0.27797    0.72769    1.000
    N2211    N        0.36691    0.33850    0.69928    1.000
    N2212    N        0.38222    0.35098    0.63049    1.000
    Si2213   Si       0.36147    0.36090    0.73782    1.000
    N2214    N        0.34563    0.28978    0.65638    1.000
    Si2215   Si       0.38132    0.43404    0.73919    1.000
    Si2216   Si       0.39301    0.41859    0.67139    1.000
    N2217    N        0.39417    0.49546    0.64445    1.000
    N2218    N        0.34932    0.41800    0.66090    1.000
    N2219    N        0.35340    0.40245    0.72773    1.000
    Si2220   Si       0.37547    0.33667    0.80721    1.000
    N2221    N        0.38562    0.33409    0.76470    1.000
    N2222    N        0.38049    0.37870    0.81447    1.000
    Si2223   Si       0.39182    0.29020    0.75057    1.000
    N2224    N        0.39678    0.26961    0.78921    1.000
    Si2225   Si       0.36967    0.39224    0.85388    1.000
    Si2226   Si       0.37093    0.50054    0.78190    1.000
    N2227    N        0.36919    0.48168    0.86444    1.000
    N2228    N        0.36037    0.47097    0.75362    1.000
    N2229    N        0.39344    0.42214    0.87526    1.000
    Si2230   Si       0.39998    0.45712    0.84902    1.000
    N2231    N        0.36901    0.35369    0.87396    1.000
    Si2232   Si       0.35512    0.34288    0.97572    1.000
    N2233    N        0.36904    0.32626    0.93869    1.000
    Si2234   Si       0.34488    0.33232    0.90173    1.000
    N2235    N        0.40258    0.27578    0.97151    1.000
    N2236    N        0.35641    0.44649    0.98835    1.000
    N2237    N        0.36042    0.38590    0.97880    1.000
    Si2238   Si       0.36647    0.42274    0.95501    1.000
    N2239    N        0.36300    0.54403    0.04178    1.000
    N2240    N        0.38026    0.59679    0.08195    1.000
    Si2241   Si       0.38016    0.58282    0.03776    1.000
    N2242    N        0.36253    0.62028    0.02551    1.000
    Si2243   Si       0.38910    0.52393    0.06763    1.000
    N2244    N        0.37544    0.53549    0.10864    1.000
    Si2245   Si       0.35383    0.57483    0.11197    1.000
    Si2246   Si       0.36443    0.63444    0.06553    1.000
    N2247    N        0.36079    0.72016    0.06336    1.000
    Si2248   Si       0.36706    0.69879    0.10359    1.000
    N2249    N        0.38754    0.68378    0.00189    1.000
    N2250    N        0.39113    0.66765    0.07217    1.000
    Si2251   Si       0.39338    0.69965    0.04202    1.000
    N2252    N        0.34752    0.73716    0.11948    1.000
    N2253    N        0.36959    0.57959    0.21949    1.000
    N2254    N        0.35922    0.59748    0.14867    1.000
    Si2255   Si       0.38685    0.53755    0.22341    1.000
    N2256    N        0.39869    0.53614    0.17986    1.000
    Si2257   Si       0.38570    0.51174    0.14412    1.000
    Si2258   Si       0.40095    0.60795    0.21887    1.000
    N2259    N        0.39790    0.71124    0.24005    1.000
    N2260    N        0.37871    0.63867    0.19645    1.000
    N2261    N        0.37631    0.73272    0.18059    1.000
    N2262    N        0.35397    0.66720    0.13009    1.000
    Si2263   Si       0.38054    0.63987    0.15194    1.000
    Si2264   Si       0.37086    0.73901    0.22228    1.000
    Si2265   Si       0.34674    0.65458    0.22310    1.000
    Si2266   Si       0.34915    0.75650    0.15629    1.000
    Si2267   Si       0.37668    0.54145    0.32726    1.000
    N2268    N        0.37013    0.56472    0.36388    1.000
    Si2269   Si       0.35849    0.60642    0.36654    1.000
    N2270    N        0.36255    0.51304    0.25112    1.000
    N2271    N        0.37283    0.62869    0.33280    1.000
    Si2272   Si       0.38627    0.69124    0.27709    1.000
    N2273    N        0.35907    0.71259    0.30390    1.000
    N2274    N        0.35927    0.65804    0.26457    1.000
    Si2275   Si       0.36789    0.72338    0.34580    1.000
    Si2276   Si       0.34249    0.64039    0.30158    1.000
    Si2277   Si       0.35163    0.58902    0.43535    1.000
    Si2278   Si       0.38581    0.53484    0.39258    1.000
    N2279    N        0.36835    0.54751    0.43186    1.000
    N2280    N        0.36407    0.62083    0.40930    1.000
    N2281    N        0.34971    0.59551    0.47810    1.000
    Si2282   Si       0.39314    0.51715    0.45180    1.000
    Si2283   Si       0.38750    0.60440    0.49282    1.000
    Si2284   Si       0.38052    0.65582    0.43493    1.000
    N2285    N        0.38493    0.70094    0.42194    1.000
    Si2286   Si       0.34261    0.70694    0.41254    1.000
    N2287    N        0.37579    0.74635    0.46768    1.000
    N2288    N        0.38715    0.64751    0.48068    1.000
    N2289    N        0.37980    0.54883    0.59487    1.000
    Si2290   Si       0.36605    0.57778    0.56142    1.000
    N2291    N        0.34601    0.55161    0.53127    1.000
    Si2292   Si       0.34443    0.51255    0.51084    1.000
    N2293    N        0.39471    0.59457    0.53349    1.000
    Si2294   Si       0.36874    0.50895    0.60852    1.000
    N2295    N        0.33928    0.61300    0.57031    1.000
    N2296    N        0.38439    0.71553    0.58259    1.000
    Si2297   Si       0.35628    0.65156    0.58279    1.000
    Si2298   Si       0.39174    0.66974    0.52017    1.000
    Si2299   Si       0.38793    0.74491    0.51067    1.000
    N2300    N        0.34890    0.68032    0.52889    1.000
    Si2301   Si       0.38980    0.74024    0.61822    1.000
    N2302    N        0.39729    0.65585    0.56289    1.000
    Si2303   Si       0.34643    0.71457    0.55735    1.000
    N2304    N        0.35597    0.75780    0.53759    1.000
    Si2305   Si       0.38134    0.59762    0.68114    1.000
    N2306    N        0.39258    0.59097    0.72400    1.000
    N2307    N        0.36751    0.55764    0.66779    1.000
    N2308    N        0.34642    0.62106    0.68389    1.000
    Si2309   Si       0.40115    0.52984    0.66850    1.000
    Si2310   Si       0.40051    0.55179    0.73735    1.000
    N2311    N        0.39729    0.74018    0.65973    1.000
    N2312    N        0.38676    0.66225    0.73310    1.000
    N2313    N        0.34589    0.69205    0.68313    1.000
    N2314    N        0.38347    0.73319    0.72252    1.000
    N2315    N        0.36658    0.64867    0.62462    1.000
    Si2316   Si       0.36092    0.69560    0.72408    1.000
    Si2317   Si       0.34204    0.65634    0.65907    1.000
    N2318    N        0.38153    0.55336    0.83494    1.000
    N2319    N        0.36501    0.53967    0.76179    1.000
    Si2320   Si       0.35512    0.51899    0.84572    1.000
    N2321    N        0.35112    0.61343    0.77931    1.000
    Si2322   Si       0.38431    0.62197    0.75241    1.000
    Si2323   Si       0.39945    0.57659    0.86691    1.000
    N2324    N        0.36428    0.74361    0.80808    1.000
    Si2325   Si       0.35633    0.69960    0.79515    1.000
    N2326    N        0.39820    0.68910    0.79317    1.000
    Si2327   Si       0.34244    0.62118    0.88171    1.000
    N2328    N        0.38461    0.61650    0.87459    1.000
    N2329    N        0.38237    0.54935    0.90120    1.000
    N2330    N        0.39607    0.61922    0.96336    1.000
    Si2331   Si       0.37085    0.64133    0.98827    1.000
    N2332    N        0.37577    0.69751    0.93620    1.000
    Si2333   Si       0.38080    0.71612    0.89503    1.000
    Si2334   Si       0.39072    0.71493    0.97236    1.000
    N2335    N        0.36689    0.75031    0.97972    1.000
    N2336    N        0.37057    0.79450    0.08613    1.000
    Si2337   Si       0.35796    0.84688    0.03517    1.000
    N2338    N        0.34937    0.81272    0.01019    1.000
    Si2339   Si       0.35281    0.81553    0.12141    1.000
    Si2340   Si       0.34762    0.75651    0.08144    1.000
    N2341    N        0.35819    0.88574    0.01436    1.000
    N2342    N        0.37357    0.91045    0.08235    1.000
    N2343    N        0.37837    0.94457    0.01756    1.000
    Si2344   Si       0.35109    0.99618    0.08467    1.000
    Si2345   Si       0.38618    0.90704    0.04029    1.000
    Si2346   Si       0.39142    0.93471    0.11354    1.000
    N2347    N        0.34683    0.00538    0.00168    1.000
    N2348    N        0.36826    0.97102    0.11827    1.000
    N2349    N        0.35905    0.85909    0.12733    1.000
    N2350    N        0.36739    0.78324    0.22527    1.000
    Si2351   Si       0.35058    0.87215    0.22518    1.000
    N2352    N        0.36601    0.79663    0.15873    1.000
    Si2353   Si       0.38388    0.80933    0.19603    1.000
    N2354    N        0.37656    0.85174    0.19644    1.000
    Si2355   Si       0.39177    0.86616    0.15724    1.000
    N2356    N        0.36999    0.97469    0.18732    1.000
    Si2357   Si       0.39490    0.99397    0.21668    1.000
    N2358    N        0.36682    0.91163    0.22670    1.000
    Si2359   Si       0.34827    0.94545    0.20945    1.000
    N2360    N        0.38122    0.84005    0.32457    1.000
    Si2361   Si       0.35834    0.86725    0.30091    1.000
    Si2362   Si       0.37465    0.79764    0.32757    1.000
    N2363    N        0.35825    0.84599    0.26116    1.000
    N2364    N        0.35409    0.78007    0.29137    1.000
    N2365    N        0.36202    0.76593    0.35578    1.000
    Si2366   Si       0.34640    0.80464    0.25664    1.000
    N2367    N        0.36063    0.98028    0.29268    1.000
    N2368    N        0.36423    0.90839    0.32183    1.000
    N2369    N        0.35148    0.95849    0.36218    1.000
    Si2370   Si       0.35071    0.91378    0.36569    1.000
    Si2371   Si       0.34431    0.95108    0.31901    1.000
    N2372    N        0.36390    0.87240    0.46318    1.000
    Si2373   Si       0.37992    0.83322    0.47087    1.000
    N2374    N        0.35049    0.80855    0.45282    1.000
    N2375    N        0.37438    0.90078    0.39892    1.000
    N2376    N        0.37471    0.99069    0.49371    1.000
    N2377    N        0.38822    0.94054    0.46208    1.000
    Si2378   Si       0.38826    0.98529    0.44922    1.000
    Si2379   Si       0.36717    0.90861    0.44216    1.000
    Si2380   Si       0.36909    0.98734    0.39015    1.000
    N2381    N        0.34778    0.98708    0.42892    1.000
    Si2382   Si       0.34834    0.95615    0.48144    1.000
    N2383    N        0.37908    0.82794    0.51456    1.000
    Si2384   Si       0.36660    0.78879    0.56887    1.000
    Si2385   Si       0.34806    0.84869    0.53534    1.000
    N2386    N        0.35940    0.76986    0.60819    1.000
    Si2387   Si       0.35509    0.85339    0.60641    1.000
    N2388    N        0.39139    0.87670    0.61512    1.000
    N2389    N        0.34472    0.82680    0.57370    1.000
    N2390    N        0.35917    0.88543    0.55721    1.000
    Si2391   Si       0.36627    0.97658    0.59275    1.000
    N2392    N        0.35150    0.93938    0.52269    1.000
    N2393    N        0.38549    0.94139    0.57640    1.000
    N2394    N        0.38608    0.00206    0.55867    1.000
    Si2395   Si       0.38662    0.96230    0.53591    1.000
    Si2396   Si       0.39431    0.89935    0.57928    1.000
    N2397    N        0.38761    0.80487    0.69549    1.000
    Si2398   Si       0.35924    0.83628    0.68448    1.000
    N2399    N        0.36566    0.88041    0.67920    1.000
    Si2400   Si       0.37798    0.76129    0.69146    1.000
    N2401    N        0.34917    0.83003    0.64296    1.000
    Si2402   Si       0.35375    0.91215    0.71561    1.000
    N2403    N        0.39615    0.92485    0.72379    1.000
    N2404    N        0.40053    0.97763    0.67681    1.000
    N2405    N        0.36029    0.00210    0.62808    1.000
    Si2406   Si       0.35910    0.82087    0.83360    1.000
    N2407    N        0.35102    0.85511    0.86229    1.000
    N2408    N        0.34902    0.84240    0.79884    1.000
    N2409    N        0.40033    0.80283    0.82542    1.000
    Si2410   Si       0.35261    0.88064    0.78089    1.000
    Si2411   Si       0.38765    0.93879    0.76424    1.000
    N2412    N        0.38954    0.90240    0.79105    1.000
    N2413    N        0.36959    0.99423    0.84860    1.000
    N2414    N        0.34640    0.94437    0.75110    1.000
    Si2415   Si       0.39699    0.96499    0.86665    1.000
    Si2416   Si       0.39029    0.86091    0.88010    1.000
    Si2417   Si       0.38232    0.78896    0.91811    1.000
    Si2418   Si       0.38042    0.78998    0.99070    1.000
    N2419    N        0.39977    0.82232    0.89689    1.000
    Si2420   Si       0.38774    0.00719    0.93009    1.000
    N2421    N        0.40145    0.97979    0.96163    1.000
    N2422    N        0.39406    0.89064    0.90988    1.000
    N2423    N        0.35469    0.92376    0.95544    1.000
    Si2424   Si       0.39009    0.94109    0.97498    1.000
    Si2425   Si       0.35735    0.91316    0.91437    1.000
    N2426    N        0.36166    0.94815    0.88930    1.000
    N2427    N        0.34338    0.00211    0.92532    1.000
    N2428    N        0.44015    0.07738    0.09950    1.000
    Si2429   Si       0.42715    0.11878    0.09529    1.000
    N2430    N        0.44379    0.08634    0.03103    1.000
    N2431    N        0.45420    0.02047    0.06703    1.000
    Si2432   Si       0.45215    0.13082    0.02828    1.000
    N2433    N        0.41306    0.03344    0.99732    1.000
    Si2434   Si       0.44831    0.18424    0.07413    1.000
    N2435    N        0.41804    0.15152    0.00755    1.000
    N2436    N        0.40663    0.19297    0.06218    1.000
    N2437    N        0.45341    0.14172    0.07122    1.000
    Si2438   Si       0.41144    0.06157    0.12861    1.000
    N2439    N        0.42371    0.01894    0.12751    1.000
    Si2440   Si       0.42243    0.06211    0.19667    1.000
    N2441    N        0.41926    0.07164    0.23882    1.000
    N2442    N        0.43059    0.01828    0.20428    1.000
    N2443    N        0.44574    0.12833    0.20497    1.000
    N2444    N        0.42126    0.12690    0.13722    1.000
    Si2445   Si       0.45397    0.11487    0.16262    1.000
    Si2446   Si       0.43361    0.11184    0.24374    1.000
    Si2447   Si       0.45562    0.01887    0.24139    1.000
    N2448    N        0.45825    0.07213    0.17230    1.000
    N2449    N        0.41415    0.18378    0.22770    1.000
    Si2450   Si       0.45172    0.17013    0.21447    1.000
    Si2451   Si       0.44727    0.20181    0.14903    1.000
    N2452    N        0.44101    0.24506    0.15041    1.000
    N2453    N        0.40470    0.19143    0.14932    1.000
    N2454    N        0.41139    0.25123    0.22229    1.000
    Si2455   Si       0.42468    0.03948    0.31673    1.000
    N2456    N        0.44909    0.07422    0.31638    1.000
    Si2457   Si       0.43868    0.11513    0.30432    1.000
    N2458    N        0.43014    0.01616    0.27808    1.000
    N2459    N        0.44118    0.01173    0.34661    1.000
    N2460    N        0.40382    0.11894    0.27807    1.000
    N2461    N        0.43555    0.14190    0.33605    1.000
    Si2462   Si       0.45232    0.24180    0.30863    1.000
    N2463    N        0.42760    0.20882    0.32726    1.000
    N2464    N        0.45590    0.23522    0.26684    1.000
    Si2465   Si       0.41786    0.21809    0.25227    1.000
    Si2466   Si       0.45574    0.17796    0.34090    1.000
    Si2467   Si       0.41159    0.13075    0.37210    1.000
    Si2468   Si       0.41685    0.05954    0.46605    1.000
    N2469    N        0.41559    0.01939    0.45188    1.000
    N2470    N        0.44081    0.06494    0.39178    1.000
    N2471    N        0.45536    0.08043    0.45876    1.000
    N2472    N        0.43501    0.13235    0.40835    1.000
    Si2473   Si       0.45478    0.09716    0.41928    1.000
    Si2474   Si       0.44122    0.17318    0.42177    1.000
    N2475    N        0.42167    0.21437    0.41997    1.000
    N2476    N        0.42603    0.16387    0.46604    1.000
    Si2477   Si       0.45891    0.23012    0.39917    1.000
    Si2478   Si       0.42153    0.02227    0.58085    1.000
    N2479    N        0.41390    0.06462    0.58869    1.000
    N2480    N        0.45933    0.01254    0.55720    1.000
    N2481    N        0.43677    0.25118    0.55373    1.000
    Si2482   Si       0.44733    0.24890    0.51220    1.000
    Si2483   Si       0.42190    0.14024    0.54982    1.000
    Si2484   Si       0.43319    0.21302    0.57164    1.000
    N2485    N        0.41866    0.18496    0.54192    1.000
    N2486    N        0.40112    0.13724    0.58736    1.000
    N2487    N        0.40855    0.24145    0.49466    1.000
    Si2488   Si       0.42878    0.04300    0.69980    1.000
    N2489    N        0.43299    0.08420    0.71227    1.000
    N2490    N        0.42125    0.02508    0.73738    1.000
    N2491    N        0.40279    0.14744    0.71295    1.000
    N2492    N        0.45373    0.24813    0.64198    1.000
    Si2493   Si       0.43494    0.16468    0.68752    1.000
    N2494    N        0.44128    0.20553    0.70221    1.000
    Si2495   Si       0.41980    0.22061    0.64048    1.000
    N2496    N        0.41806    0.17674    0.64920    1.000
    Si2497   Si       0.41092    0.23575    0.70536    1.000
    N2498    N        0.44236    0.06496    0.79229    1.000
    Si2499   Si       0.44322    0.10913    0.79727    1.000
    Si2500   Si       0.40795    0.05529    0.76659    1.000
    N2501    N        0.40931    0.13352    0.80893    1.000
    Si2502   Si       0.42315    0.17071    0.82476    1.000
    N2503    N        0.43372    0.16212    0.86569    1.000
    N2504    N        0.45615    0.17797    0.79974    1.000
    Si2505   Si       0.45246    0.12207    0.87232    1.000
    N2506    N        0.41286    0.11025    0.89531    1.000
    N2507    N        0.45037    0.05478    0.89064    1.000
    Si2508   Si       0.43370    0.11976    0.93487    1.000
    N2509    N        0.44357    0.08507    0.95876    1.000
    Si2510   Si       0.40809    0.06773    0.88763    1.000
    Si2511   Si       0.44704    0.06050    0.99623    1.000
    Si2512   Si       0.41244    0.17684    0.97383    1.000
    Si2513   Si       0.40253    0.23623    0.98741    1.000
    Si2514   Si       0.42956    0.18658    0.90075    1.000
    N2515    N        0.43705    0.21434    0.97413    1.000
    N2516    N        0.41555    0.15979    0.93530    1.000
    N2517    N        0.40910    0.22458    0.89008    1.000
    N2518    N        0.44370    0.30871    0.01973    1.000
    Si2519   Si       0.43115    0.26685    0.11447    1.000
    N2520    N        0.46021    0.26791    0.08373    1.000
    N2521    N        0.46178    0.36515    0.11507    1.000
    Si2522   Si       0.43287    0.38023    0.08612    1.000
    N2523    N        0.41965    0.41935    0.10094    1.000
    Si2524   Si       0.44975    0.41975    0.02846    1.000
    Si2525   Si       0.41416    0.44699    0.06674    1.000
    N2526    N        0.40493    0.42068    0.03086    1.000
    N2527    N        0.45659    0.45391    0.05402    1.000
    N2528    N        0.46099    0.38588    0.05145    1.000
    Si2529   Si       0.41730    0.26803    0.18037    1.000
    N2530    N        0.42814    0.30652    0.13108    1.000
    N2531    N        0.44298    0.29932    0.19845    1.000
    Si2532   Si       0.44600    0.33462    0.22194    1.000
    Si2533   Si       0.45167    0.27054    0.23492    1.000
    N2534    N        0.40859    0.35437    0.22726    1.000
    Si2535   Si       0.44101    0.37828    0.15324    1.000
    Si2536   Si       0.45991    0.31687    0.16004    1.000
    N2537    N        0.43870    0.41854    0.16629    1.000
    Si2538   Si       0.40914    0.44072    0.24345    1.000
    N2539    N        0.41525    0.48123    0.14258    1.000
    Si2540   Si       0.45639    0.49835    0.14652    1.000
    N2541    N        0.43954    0.46225    0.22093    1.000
    Si2542   Si       0.41088    0.43797    0.14019    1.000
    Si2543   Si       0.42945    0.31441    0.29694    1.000
    N2544    N        0.42749    0.27644    0.31721    1.000
    N2545    N        0.44438    0.35662    0.30516    1.000
    Si2546   Si       0.40939    0.27142    0.35659    1.000
    N2547    N        0.45188    0.30601    0.25881    1.000
    N2548    N        0.44413    0.33713    0.37059    1.000
    Si2549   Si       0.40046    0.36959    0.26966    1.000
    Si2550   Si       0.42245    0.47233    0.31929    1.000
    N2551    N        0.42688    0.40462    0.26258    1.000
    N2552    N        0.41280    0.47130    0.27551    1.000
    N2553    N        0.41948    0.43772    0.34328    1.000
    Si2554   Si       0.44303    0.49449    0.25215    1.000
    N2555    N        0.45831    0.49472    0.32458    1.000
    Si2556   Si       0.40068    0.34432    0.37326    1.000
    N2557    N        0.41930    0.36855    0.46577    1.000
    N2558    N        0.44318    0.26854    0.38300    1.000
    Si2559   Si       0.45585    0.35754    0.44831    1.000
    Si2560   Si       0.44234    0.50221    0.41030    1.000
    N2561    N        0.45021    0.46001    0.41322    1.000
    Si2562   Si       0.43726    0.42446    0.43344    1.000
    N2563    N        0.40414    0.40823    0.41201    1.000
    N2564    N        0.41859    0.43463    0.47430    1.000
    N2565    N        0.43982    0.30764    0.59809    1.000
    Si2566   Si       0.41451    0.28606    0.56830    1.000
    N2567    N        0.41908    0.31830    0.53837    1.000
    Si2568   Si       0.44496    0.33813    0.56653    1.000
    N2569    N        0.42450    0.37530    0.57658    1.000
    N2570    N        0.44435    0.44419    0.56177    1.000
    N2571    N        0.42353    0.50268    0.53194    1.000
    Si2572   Si       0.45387    0.40296    0.56220    1.000
    Si2573   Si       0.40779    0.46668    0.54918    1.000
    N2574    N        0.45547    0.47536    0.61365    1.000
    Si2575   Si       0.41463    0.46274    0.62050    1.000
    Si2576   Si       0.42073    0.39880    0.49826    1.000
    N2577    N        0.45868    0.39617    0.51925    1.000
    N2578    N        0.44981    0.34911    0.73243    1.000
    N2579    N        0.43276    0.31616    0.66782    1.000
    N2580    N        0.42131    0.27597    0.72111    1.000
    Si2581   Si       0.44398    0.31171    0.70866    1.000
    Si2582   Si       0.45639    0.29219    0.63702    1.000
    Si2583   Si       0.39971    0.34671    0.67123    1.000
    N2584    N        0.40606    0.42146    0.62786    1.000
    Si2585   Si       0.42742    0.48064    0.71425    1.000
    N2586    N        0.41560    0.38505    0.68672    1.000
    Si2587   Si       0.43525    0.39044    0.72421    1.000
    N2588    N        0.40182    0.44702    0.70417    1.000
    Si2589   Si       0.43099    0.28708    0.81304    1.000
    N2590    N        0.45287    0.37618    0.80379    1.000
    N2591    N        0.41050    0.32039    0.83133    1.000
    N2592    N        0.44629    0.25932    0.84321    1.000
    N2593    N        0.46296    0.30336    0.78832    1.000
    N2594    N        0.40960    0.40537    0.75623    1.000
    Si2595   Si       0.41493    0.39919    0.79771    1.000
    Si2596   Si       0.44241    0.47175    0.80759    1.000
    N2597    N        0.44093    0.47324    0.85328    1.000
    N2598    N        0.40791    0.50174    0.80354    1.000
    N2599    N        0.40894    0.43951    0.81187    1.000
    N2600    N        0.44869    0.47827    0.75263    1.000
    Si2601   Si       0.40797    0.33479    0.87149    1.000
    Si2602   Si       0.40687    0.30507    0.93883    1.000
    N2603    N        0.42994    0.36727    0.89620    1.000
    N2604    N        0.41165    0.30023    0.89587    1.000
    N2605    N        0.44121    0.33002    0.95178    1.000
    Si2606   Si       0.43147    0.26255    0.88629    1.000
    N2607    N        0.45869    0.26243    0.92190    1.000
    N2608    N        0.40713    0.41775    0.94281    1.000
    Si2609   Si       0.44291    0.43826    0.95538    1.000
    N2610    N        0.44503    0.47720    0.97447    1.000
    Si2611   Si       0.42558    0.40968    0.90351    1.000
    N2612    N        0.44795    0.50848    0.91173    1.000
    N2613    N        0.42798    0.54061    0.06411    1.000
    Si2614   Si       0.41816    0.60041    0.10320    1.000
    N2615    N        0.41625    0.58122    0.01450    1.000
    Si2616   Si       0.44825    0.57194    0.04140    1.000
    N2617    N        0.44906    0.60490    0.07023    1.000
    Si2618   Si       0.43572    0.75089    0.01967    1.000
    N2619    N        0.42632    0.72741    0.05488    1.000
    Si2620   Si       0.42480    0.66960    0.10122    1.000
    Si2621   Si       0.43761    0.75001    0.09155    1.000
    N2622    N        0.43734    0.56918    0.12749    1.000
    Si2623   Si       0.43407    0.56006    0.17024    1.000
    N2624    N        0.43684    0.59447    0.19762    1.000
    N2625    N        0.42925    0.53410    0.24076    1.000
    Si2626   Si       0.45987    0.61435    0.22876    1.000
    N2627    N        0.41657    0.63437    0.12803    1.000
    N2628    N        0.44862    0.65882    0.21896    1.000
    Si2629   Si       0.43570    0.69991    0.22246    1.000
    N2630    N        0.44423    0.72229    0.18423    1.000
    Si2631   Si       0.41341    0.73054    0.15644    1.000
    N2632    N        0.40801    0.70390    0.12224    1.000
    Si2633   Si       0.43753    0.58560    0.28788    1.000
    Si2634   Si       0.44307    0.53378    0.33734    1.000
    N2635    N        0.41626    0.55465    0.31021    1.000
    N2636    N        0.44532    0.61251    0.31971    1.000
    N2637    N        0.41953    0.60996    0.25644    1.000
    Si2638   Si       0.41477    0.64318    0.32654    1.000
    N2639    N        0.42074    0.67220    0.29509    1.000
    Si2640   Si       0.44827    0.70099    0.36154    1.000
    N2641    N        0.40930    0.72318    0.35172    1.000
    N2642    N        0.42972    0.66026    0.36223    1.000
    N2643    N        0.42561    0.52947    0.37679    1.000
    N2644    N        0.42472    0.59244    0.47205    1.000
    N2645    N        0.43442    0.52500    0.44675    1.000
    Si2646   Si       0.45112    0.56002    0.46573    1.000
    N2647    N        0.42371    0.64514    0.43009    1.000
    Si2648   Si       0.43275    0.63848    0.47273    1.000
    Si2649   Si       0.45169    0.64631    0.39694    1.000
    Si2650   Si       0.40522    0.73558    0.43658    1.000
    N2651    N        0.44502    0.72814    0.45322    1.000
    Si2652   Si       0.45372    0.75442    0.48705    1.000
    Si2653   Si       0.42124    0.56148    0.60508    1.000
    Si2654   Si       0.42480    0.62150    0.55523    1.000
    N2655    N        0.41590    0.60450    0.59659    1.000
    N2656    N        0.45319    0.55039    0.57909    1.000
    Si2657   Si       0.45786    0.52791    0.54126    1.000
    Si2658   Si       0.41851    0.68850    0.58437    1.000
    N2659    N        0.43859    0.65090    0.51633    1.000
    Si2660   Si       0.45339    0.69175    0.52103    1.000
    N2661    N        0.41130    0.70853    0.51345    1.000
    N2662    N        0.45558    0.69915    0.56352    1.000
    N2663    N        0.43120    0.75678    0.61235    1.000
    N2664    N        0.43292    0.54823    0.64454    1.000
    Si2665   Si       0.45356    0.62541    0.69019    1.000
    N2666    N        0.41627    0.62066    0.66708    1.000
    N2667    N        0.40876    0.52011    0.70981    1.000
    N2668    N        0.44832    0.74746    0.70431    1.000
    Si2669   Si       0.42436    0.73835    0.73850    1.000
    Si2670   Si       0.44101    0.74922    0.65733    1.000
    Si2671   Si       0.40821    0.63522    0.62640    1.000
    N2672    N        0.43047    0.67185    0.62229    1.000
    N2673    N        0.43534    0.58381    0.82737    1.000
    N2674    N        0.43177    0.54947    0.76619    1.000
    Si2675   Si       0.44385    0.62079    0.80892    1.000
    N2676    N        0.41932    0.62863    0.77503    1.000
    Si2677   Si       0.41518    0.54642    0.80693    1.000
    N2678    N        0.43232    0.73304    0.82620    1.000
    N2679    N        0.43902    0.65384    0.83618    1.000
    Si2680   Si       0.41905    0.69341    0.83087    1.000
    Si2681   Si       0.42015    0.67069    0.75950    1.000
    N2682    N        0.44867    0.70219    0.74877    1.000
    Si2683   Si       0.42525    0.58797    0.97204    1.000
    N2684    N        0.43825    0.57461    0.89010    1.000
    Si2685   Si       0.42155    0.54276    0.91480    1.000
    N2686    N        0.43049    0.54710    0.95778    1.000
    Si2687   Si       0.45835    0.51342    0.95555    1.000
    N2688    N        0.40348    0.75381    0.90267    1.000
    N2689    N        0.40264    0.68673    0.87243    1.000
    N2690    N        0.43344    0.72780    0.98266    1.000
    Si2691   Si       0.41881    0.64613    0.87663    1.000
    Si2692   Si       0.44730    0.75631    0.90369    1.000
    N2693    N        0.44890    0.64671    0.90715    1.000
    Si2694   Si       0.43666    0.86912    0.05636    1.000
    N2695    N        0.44349    0.79273    0.07627    1.000
    N2696    N        0.40825    0.78504    0.02342    1.000
    Si2697   Si       0.40468    0.80686    0.06136    1.000
    N2698    N        0.39903    0.84971    0.05203    1.000
    N2699    N        0.45005    0.88493    0.09571    1.000
    N2700    N        0.42922    0.90963    0.04101    1.000
    N2701    N        0.42802    0.95578    0.09570    1.000
    Si2702   Si       0.42081    0.99979    0.08787    1.000
    Si2703   Si       0.44838    0.92915    0.00582    1.000
    N2704    N        0.44851    0.97259    0.01447    1.000
    Si2705   Si       0.45403    0.92644    0.07935    1.000
    N2706    N        0.43136    0.84425    0.14765    1.000
    N2707    N        0.42466    0.79871    0.19572    1.000
    Si2708   Si       0.43410    0.79987    0.15471    1.000
    N2709    N        0.42164    0.76489    0.13100    1.000
    Si2710   Si       0.45410    0.80473    0.22485    1.000
    Si2711   Si       0.40813    0.91775    0.24109    1.000
    N2712    N        0.40379    0.96185    0.24429    1.000
    N2713    N        0.40164    0.90932    0.15144    1.000
    Si2714   Si       0.43707    0.92136    0.17394    1.000
    N2715    N        0.43853    0.90284    0.21369    1.000
    Si2716   Si       0.44567    0.00567    0.16141    1.000
    N2717    N        0.44926    0.96320    0.17328    1.000
    N2718    N        0.42049    0.79602    0.33800    1.000
    Si2719   Si       0.42063    0.84311    0.34417    1.000
    N2720    N        0.44082    0.81951    0.26404    1.000
    Si2721   Si       0.44760    0.86109    0.27930    1.000
    Si2722   Si       0.44850    0.80269    0.30345    1.000
    Si2723   Si       0.41979    0.76162    0.36745    1.000
    N2724    N        0.42078    0.89002    0.35005    1.000
    N2725    N        0.41481    0.89140    0.27803    1.000
    N2726    N        0.41984    0.95232    0.31285    1.000
    Si2727   Si       0.45162    0.97114    0.33614    1.000
    Si2728   Si       0.40646    0.91083    0.31649    1.000
    Si2729   Si       0.40481    0.98184    0.28454    1.000
    Si2730   Si       0.43171    0.81100    0.41452    1.000
    N2731    N        0.41266    0.77182    0.41138    1.000
    N2732    N        0.42062    0.82165    0.45483    1.000
    N2733    N        0.41907    0.84291    0.38917    1.000
    Si2734   Si       0.42626    0.93918    0.48214    1.000
    Si2735   Si       0.41639    0.88729    0.39380    1.000
    N2736    N        0.44247    0.90762    0.42108    1.000
    Si2737   Si       0.44353    0.95063    0.41033    1.000
    N2738    N        0.40722    0.97251    0.40655    1.000
    Si2739   Si       0.45572    0.00509    0.45049    1.000
    N2740    N        0.45441    0.96315    0.45449    1.000
    N2741    N        0.44522    0.90003    0.48972    1.000
    Si2742   Si       0.44380    0.79211    0.59140    1.000
    Si2743   Si       0.41536    0.81215    0.52635    1.000
    N2744    N        0.44979    0.83524    0.51700    1.000
    N2745    N        0.42085    0.77392    0.50655    1.000
    N2746    N        0.40873    0.80354    0.56869    1.000
    Si2747   Si       0.45519    0.87807    0.52535    1.000
    N2748    N        0.43226    0.88879    0.56320    1.000
    N2749    N        0.42887    0.95924    0.52138    1.000
    N2750    N        0.42882    0.00594    0.62086    1.000
    Si2751   Si       0.42844    0.81827    0.69144    1.000
    N2752    N        0.43035    0.85354    0.66593    1.000
    N2753    N        0.45312    0.79272    0.66344    1.000
    N2754    N        0.45655    0.81165    0.72695    1.000
    Si2755   Si       0.40368    0.88494    0.65644    1.000
    N2756    N        0.45400    0.96075    0.71910    1.000
    N2757    N        0.42905    0.91752    0.66580    1.000
    Si2758   Si       0.41846    0.94652    0.69594    1.000
    N2759    N        0.44173    0.84189    0.78759    1.000
    Si2760   Si       0.43360    0.83159    0.83136    1.000
    Si2761   Si       0.44824    0.80188    0.76998    1.000
    N2762    N        0.41418    0.86870    0.84633    1.000
    N2763    N        0.41778    0.77033    0.76832    1.000
    Si2764   Si       0.40368    0.76149    0.80753    1.000
    Si2765   Si       0.44488    0.97241    0.81433    1.000
    N2766    N        0.42118    0.94260    0.84047    1.000
    N2767    N        0.41760    0.96703    0.77797    1.000
    Si2768   Si       0.42091    0.90209    0.82028    1.000
    N2769    N        0.43731    0.01339    0.83401    1.000
    N2770    N        0.46513    0.89889    0.80943    1.000
    Si2771   Si       0.44194    0.98941    0.74937    1.000
    Si2772   Si       0.43249    0.82200    0.92958    1.000
    N2773    N        0.45349    0.86011    0.92558    1.000
    N2774    N        0.40099    0.80423    0.95569    1.000
    N2775    N        0.46180    0.79417    0.91610    1.000
    Si2776   Si       0.43188    0.89840    0.93046    1.000
    N2777    N        0.44853    0.93463    0.91546    1.000
    Si2778   Si       0.43467    0.99791    0.98233    1.000
    N2779    N        0.42246    0.91343    0.97240    1.000
    Si2780   Si       0.45286    0.97593    0.91539    1.000
    N2781    N        0.41437    0.99021    0.89789    1.000
    N2782    N        0.50349    0.07400    0.06401    1.000
    N2783    N        0.47834    0.02936    0.00544    1.000
    Si2784   Si       0.46285    0.06412    0.06573    1.000
    Si2785   Si       0.48901    0.23775    0.06405    1.000
    N2786    N        0.48084    0.19881    0.04817    1.000
    N2787    N        0.49288    0.14377    0.01236    1.000
    Si2788   Si       0.51355    0.17065    0.04019    1.000
    Si2789   Si       0.50138    0.16087    0.11393    1.000
    N2790    N        0.46618    0.18752    0.11353    1.000
    Si2791   Si       0.49297    0.05206    0.18847    1.000
    N2792    N        0.48973    0.04575    0.23222    1.000
    N2793    N        0.49013    0.12998    0.14394    1.000
    N2794    N        0.48879    0.01141    0.17000    1.000
    Si2795   Si       0.51601    0.18376    0.18666    1.000
    N2796    N        0.47242    0.19020    0.18216    1.000
    N2797    N        0.48269    0.17935    0.24513    1.000
    N2798    N        0.49371    0.26067    0.22270    1.000
    Si2799   Si       0.49629    0.22175    0.24681    1.000
    Si2800   Si       0.49187    0.07217    0.32206    1.000
    N2801    N        0.50036    0.04437    0.35313    1.000
    N2802    N        0.50366    0.11311    0.33014    1.000
    N2803    N        0.46657    0.12093    0.27073    1.000
    N2804    N        0.49003    0.24611    0.32855    1.000
    Si2805   Si       0.49535    0.15399    0.27666    1.000
    N2806    N        0.48944    0.17919    0.31326    1.000
    Si2807   Si       0.51562    0.21198    0.31951    1.000
    Si2808   Si       0.46636    0.03342    0.37736    1.000
    N2809    N        0.47961    0.02333    0.48098    1.000
    N2810    N        0.49700    0.10784    0.41181    1.000
    Si2811   Si       0.49302    0.06417    0.47351    1.000
    N2812    N        0.47828    0.01220    0.41416    1.000
    N2813    N        0.49956    0.24031    0.41215    1.000
    N2814    N        0.46275    0.19063    0.38068    1.000
    Si2815   Si       0.46287    0.17632    0.48174    1.000
    N2816    N        0.48098    0.17965    0.44133    1.000
    Si2817   Si       0.51624    0.20204    0.43424    1.000
    Si2818   Si       0.49659    0.12393    0.52478    1.000
    Si2819   Si       0.49599    0.03085    0.57266    1.000
    Si2820   Si       0.49579    0.11393    0.58669    1.000
    N2821    N        0.51147    0.08656    0.50762    1.000
    N2822    N        0.50994    0.07232    0.58864    1.000
    N2823    N        0.46357    0.12616    0.55531    1.000
    Si2824   Si       0.51213    0.19949    0.50648    1.000
    N2825    N        0.46965    0.20563    0.59385    1.000
    N2826    N        0.49749    0.15845    0.50046    1.000
    N2827    N        0.47159    0.21534    0.50159    1.000
    N2828    N        0.51453    0.01434    0.73053    1.000
    N2829    N        0.50387    0.07595    0.71680    1.000
    Si2830   Si       0.50005    0.03649    0.69573    1.000
    Si2831   Si       0.46967    0.10408    0.72151    1.000
    N2832    N        0.46269    0.02661    0.67729    1.000
    N2833    N        0.50535    0.13501    0.62347    1.000
    N2834    N        0.50556    0.24055    0.71791    1.000
    N2835    N        0.49220    0.19270    0.66344    1.000
    N2836    N        0.49855    0.18402    0.74094    1.000
    N2837    N        0.47002    0.13737    0.69199    1.000
    Si2838   Si       0.48713    0.21967    0.63003    1.000
    Si2839   Si       0.48473    0.20433    0.70566    1.000
    Si2840   Si       0.50186    0.15019    0.66525    1.000
    N2841    N        0.46980    0.11387    0.83331    1.000
    Si2842   Si       0.47837    0.03823    0.79843    1.000
    N2843    N        0.50274    0.02910    0.83712    1.000
    N2844    N        0.46805    0.12094    0.76185    1.000
    N2845    N        0.51596    0.05649    0.78539    1.000
    Si2846   Si       0.51094    0.13069    0.83517    1.000
    Si2847   Si       0.46631    0.02429    0.86421    1.000
    N2848    N        0.49144    0.23969    0.78552    1.000
    Si2849   Si       0.48573    0.15893    0.77520    1.000
    Si2850   Si       0.48374    0.24136    0.83072    1.000
    N2851    N        0.51137    0.21462    0.85057    1.000
    Si2852   Si       0.51811    0.22230    0.75535    1.000
    N2853    N        0.50410    0.05221    0.94269    1.000
    N2854    N        0.47275    0.11328    0.91043    1.000
    Si2855   Si       0.46878    0.07066    0.92681    1.000
    Si2856   Si       0.49925    0.01751    0.96802    1.000
    Si2857   Si       0.51413    0.12673    0.90991    1.000
    N2858    N        0.50933    0.15041    0.87468    1.000
    N2859    N        0.50797    0.23429    0.95904    1.000
    Si2860   Si       0.46681    0.22604    0.94429    1.000
    Si2861   Si       0.50474    0.19223    0.88608    1.000
    N2862    N        0.47044    0.19676    0.91064    1.000
    N2863    N        0.49581    0.32976    0.06623    1.000
    Si2864   Si       0.49872    0.36625    0.04093    1.000
    Si2865   Si       0.50024    0.34303    0.10855    1.000
    Si2866   Si       0.47261    0.29581    0.05242    1.000
    N2867    N        0.49421    0.26336    0.03102    1.000
    N2868    N        0.49561    0.35504    0.00106    1.000
    Si2869   Si       0.48660    0.47533    0.07613    1.000
    N2870    N        0.50517    0.50004    0.04511    1.000
    N2871    N        0.46526    0.50140    0.10547    1.000
    Si2872   Si       0.49285    0.37760    0.20668    1.000
    N2873    N        0.49652    0.31087    0.13772    1.000
    N2874    N        0.47960    0.35929    0.24421    1.000
    N2875    N        0.46384    0.35551    0.18275    1.000
    Si2876   Si       0.46236    0.44330    0.19296    1.000
    N2877    N        0.48180    0.46797    0.16403    1.000
    N2878    N        0.49493    0.41876    0.20716    1.000
    Si2879   Si       0.49024    0.32341    0.27002    1.000
    N2880    N        0.48976    0.31633    0.31424    1.000
    N2881    N        0.50590    0.36929    0.35454    1.000
    Si2882   Si       0.47107    0.34762    0.33810    1.000
    Si2883   Si       0.51253    0.28565    0.33393    1.000
    Si2884   Si       0.46163    0.38480    0.27813    1.000
    N2885    N        0.49445    0.40309    0.29437    1.000
    N2886    N        0.49581    0.44410    0.35243    1.000
    Si2887   Si       0.49903    0.47605    0.32548    1.000
    Si2888   Si       0.51116    0.40735    0.33436    1.000
    N2889    N        0.52079    0.46471    0.28791    1.000
    N2890    N        0.48405    0.50942    0.25611    1.000
    N2891    N        0.50637    0.30278    0.37572    1.000
    N2892    N        0.48795    0.35273    0.47831    1.000
    Si2893   Si       0.48799    0.30823    0.46794    1.000
    Si2894   Si       0.46378    0.30510    0.39290    1.000
    N2895    N        0.45796    0.31719    0.43379    1.000
    Si2896   Si       0.48811    0.46180    0.39207    1.000
    N2897    N        0.46761    0.39580    0.43132    1.000
    N2898    N        0.48422    0.50599    0.39294    1.000
    Si2899   Si       0.51142    0.40249    0.43054    1.000
    Si2900   Si       0.49982    0.29470    0.53126    1.000
    N2901    N        0.48426    0.33033    0.55028    1.000
    Si2902   Si       0.51191    0.36110    0.56427    1.000
    N2903    N        0.47356    0.28192    0.49884    1.000
    N2904    N        0.51787    0.27572    0.56403    1.000
    N2905    N        0.48550    0.38519    0.58735    1.000
    N2906    N        0.49025    0.50069    0.55102    1.000
    Si2907   Si       0.47715    0.47007    0.57687    1.000
    N2908    N        0.51041    0.44509    0.58666    1.000
    Si2909   Si       0.50086    0.41399    0.61645    1.000
    Si2910   Si       0.49786    0.38715    0.50124    1.000
    N2911    N        0.52526    0.39141    0.53667    1.000
    N2912    N        0.49925    0.29709    0.63207    1.000
    Si2913   Si       0.49253    0.34566    0.72237    1.000
    N2914    N        0.48766    0.30578    0.70999    1.000
    N2915    N        0.51010    0.37111    0.69200    1.000
    Si2916   Si       0.47746    0.47002    0.65042    1.000
    N2917    N        0.47989    0.42799    0.65342    1.000
    N2918    N        0.46947    0.41639    0.72560    1.000
    Si2919   Si       0.49336    0.41065    0.69129    1.000
    N2920    N        0.45949    0.48439    0.68637    1.000
    N2921    N        0.50341    0.34901    0.76441    1.000
    Si2922   Si       0.50250    0.28277    0.78705    1.000
    N2923    N        0.51038    0.27852    0.82961    1.000
    Si2924   Si       0.46116    0.34474    0.77681    1.000
    N2925    N        0.48122    0.40580    0.86209    1.000
    Si2926   Si       0.47982    0.44788    0.75541    1.000
    Si2927   Si       0.48642    0.40308    0.81956    1.000
    N2928    N        0.47240    0.43827    0.79676    1.000
    N2929    N        0.47360    0.50369    0.80309    1.000
    N2930    N        0.50358    0.48129    0.87173    1.000
    Si2931   Si       0.46603    0.32507    0.98607    1.000
    Si2932   Si       0.49290    0.28913    0.92445    1.000
    N2933    N        0.49259    0.32642    0.90329    1.000
    N2934    N        0.49790    0.29968    0.96702    1.000
    Si2935   Si       0.50966    0.26302    0.99190    1.000
    Si2936   Si       0.46195    0.35166    0.92064    1.000
    N2937    N        0.48659    0.38263    0.93501    1.000
    Si2938   Si       0.49911    0.41031    0.90191    1.000
    Si2939   Si       0.49551    0.38953    0.97537    1.000
    N2940    N        0.46052    0.41376    0.98767    1.000
    Si2941   Si       0.46440    0.47597    0.88867    1.000
    N2942    N        0.45791    0.43872    0.91313    1.000
    N2943    N        0.48560    0.56737    0.02256    1.000
    N2944    N        0.49613    0.55549    0.08605    1.000
    Si2945   Si       0.51176    0.54196    0.04530    1.000
    Si2946   Si       0.49778    0.60095    0.99859    1.000
    Si2947   Si       0.48119    0.63379    0.07152    1.000
    Si2948   Si       0.45599    0.54313    0.09905    1.000
    N2949    N        0.49611    0.63338    0.02855    1.000
    Si2950   Si       0.48862    0.70317    0.07652    1.000
    Si2951   Si       0.50381    0.67303    0.00869    1.000
    N2952    N        0.47849    0.73761    0.09974    1.000
    N2953    N        0.49508    0.70524    0.03494    1.000
    Si2954   Si       0.50917    0.74409    0.01913    1.000
    N2955    N        0.46374    0.67020    0.08505    1.000
    N2956    N        0.46585    0.53091    0.17174    1.000
    Si2957   Si       0.50670    0.54423    0.17367    1.000
    N2958    N        0.49877    0.62268    0.21306    1.000
    N2959    N        0.51345    0.55362    0.21487    1.000
    Si2960   Si       0.47525    0.54824    0.23740    1.000
    N2961    N        0.51484    0.58384    0.15395    1.000
    N2962    N        0.51215    0.72873    0.16423    1.000
    Si2963   Si       0.49098    0.66294    0.23112    1.000
    Si2964   Si       0.50310    0.75619    0.13078    1.000
    Si2965   Si       0.47934    0.74982    0.18649    1.000
    N2966    N        0.47706    0.55884    0.34369    1.000
    Si2967   Si       0.48010    0.60249    0.34592    1.000
    N2968    N        0.47503    0.58308    0.26321    1.000
    Si2969   Si       0.50479    0.61108    0.28331    1.000
    Si2970   Si       0.50387    0.53452    0.36699    1.000
    N2971    N        0.51475    0.61973    0.32482    1.000
    Si2972   Si       0.46310    0.68168    0.28898    1.000
    N2973    N        0.47480    0.70255    0.32646    1.000
    N2974    N        0.48922    0.65029    0.27197    1.000
    Si2975   Si       0.48739    0.74505    0.33088    1.000
    Si2976   Si       0.48728    0.74564    0.26023    1.000
    N2977    N        0.46690    0.70847    0.25352    1.000
    N2978    N        0.46101    0.74829    0.36698    1.000
    Si2979   Si       0.50628    0.55666    0.48914    1.000
    N2980    N        0.47301    0.60972    0.38868    1.000
    Si2981   Si       0.50124    0.59125    0.41508    1.000
    N2982    N        0.49092    0.56604    0.44958    1.000
    N2983    N        0.50541    0.74630    0.42145    1.000
    N2984    N        0.47940    0.63645    0.47211    1.000
    N2985    N        0.46816    0.68699    0.40051    1.000
    Si2986   Si       0.48057    0.71051    0.43267    1.000
    N2987    N        0.51546    0.68972    0.44720    1.000
    Si2988   Si       0.48285    0.58289    0.58446    1.000
    N2989    N        0.46661    0.54776    0.50483    1.000
    N2990    N        0.46887    0.61225    0.55649    1.000
    Si2991   Si       0.48218    0.62802    0.51580    1.000
    N2992    N        0.51415    0.59420    0.50841    1.000
    N2993    N        0.49568    0.66253    0.60758    1.000
    Si2994   Si       0.49662    0.68088    0.56998    1.000
    N2995    N        0.47616    0.72780    0.51316    1.000
    Si2996   Si       0.47975    0.73779    0.55433    1.000
    N2997    N        0.50295    0.66439    0.53091    1.000
    N2998    N        0.47960    0.59550    0.62589    1.000
    Si2999   Si       0.47046    0.56710    0.65730    1.000
    Si3000   Si       0.49899    0.56078    0.71039    1.000
    N3001    N        0.51154    0.54939    0.67099    1.000
    N3002    N        0.49453    0.52635    0.73633    1.000
    Si3003   Si       0.50569    0.63072    0.63433    1.000
    N3004    N        0.46386    0.58329    0.69514    1.000
    N3005    N        0.51890    0.59281    0.73515    1.000
    N3006    N        0.46322    0.64254    0.72938    1.000
    Si3007   Si       0.48452    0.68490    0.72837    1.000
    N3008    N        0.47587    0.72023    0.65044    1.000
    Si3009   Si       0.51276    0.73149    0.67209    1.000
    Si3010   Si       0.46940    0.68053    0.63896    1.000
    N3011    N        0.48008    0.64817    0.66625    1.000
    N3012    N        0.51627    0.70025    0.70116    1.000
    N3013    N        0.49177    0.54924    0.84937    1.000
    N3014    N        0.49407    0.61596    0.86019    1.000
    N3015    N        0.48471    0.61846    0.79271    1.000
    Si3016   Si       0.46592    0.58080    0.85764    1.000
    Si3017   Si       0.49841    0.62591    0.75275    1.000
    Si3018   Si       0.46202    0.51805    0.76302    1.000
    Si3019   Si       0.51535    0.62435    0.82349    1.000
    Si3020   Si       0.49919    0.50822    0.83690    1.000
    N3021    N        0.51571    0.66860    0.75636    1.000
    N3022    N        0.50713    0.72173    0.81445    1.000
    Si3023   Si       0.47336    0.74677    0.82640    1.000
    N3024    N        0.47741    0.75502    0.86950    1.000
    N3025    N        0.50028    0.51679    0.95455    1.000
    N3026    N        0.46348    0.60805    0.97195    1.000
    N3027    N        0.50679    0.63348    0.92675    1.000
    N3028    N        0.50968    0.73602    0.97717    1.000
    N3029    N        0.46795    0.72366    0.92355    1.000
    Si3030   Si       0.47163    0.71438    0.96485    1.000
    Si3031   Si       0.46923    0.64240    0.94718    1.000
    N3032    N        0.51002    0.68463    0.88361    1.000
    Si3033   Si       0.48964    0.64733    0.88986    1.000
    Si3034   Si       0.50034    0.72569    0.89433    1.000
    N3035    N        0.48136    0.67356    0.97287    1.000
    Si3036   Si       0.47765    0.80256    0.05029    1.000
    N3037    N        0.47486    0.77095    0.02053    1.000
    N3038    N        0.47075    0.84646    0.04784    1.000
    Si3039   Si       0.51574    0.85399    0.05134    1.000
    N3040    N        0.49314    0.94035    0.08391    1.000
    Si3041   Si       0.47642    0.99890    0.03610    1.000
    N3042    N        0.51721    0.98800    0.04379    1.000
    N3043    N        0.48797    0.91559    0.99933    1.000
    N3044    N        0.47920    0.76846    0.22490    1.000
    Si3045   Si       0.50021    0.81741    0.17004    1.000
    N3046    N        0.47698    0.78292    0.15598    1.000
    N3047    N        0.50288    0.84620    0.13741    1.000
    N3048    N        0.47899    0.83553    0.20372    1.000
    Si3049   Si       0.47699    0.87759    0.21669    1.000
    Si3050   Si       0.46386    0.86681    0.13154    1.000
    Si3051   Si       0.51270    0.90694    0.16888    1.000
    N3052    N        0.47255    0.89819    0.16073    1.000
    Si3053   Si       0.48564    0.97493    0.19436    1.000
    N3054    N        0.47938    0.98275    0.23805    1.000
    N3055    N        0.51525    0.94672    0.18714    1.000
    N3056    N        0.47299    0.76802    0.29684    1.000
    Si3057   Si       0.50091    0.85412    0.33152    1.000
    N3058    N        0.48106    0.87817    0.26023    1.000
    N3059    N        0.45969    0.84376    0.31972    1.000
    N3060    N        0.48540    0.95803    0.31328    1.000
    Si3061   Si       0.50107    0.96976    0.27455    1.000
    N3062    N        0.50548    0.89590    0.32136    1.000
    Si3063   Si       0.49657    0.93026    0.34742    1.000
    Si3064   Si       0.51594    0.89706    0.27973    1.000
    Si3065   Si       0.51185    0.77566    0.45336    1.000
    N3066    N        0.51068    0.85790    0.37617    1.000
    Si3067   Si       0.48874    0.76916    0.38997    1.000
    N3068    N        0.47978    0.85370    0.44985    1.000
    Si3069   Si       0.50524    0.83887    0.41694    1.000
    N3070    N        0.47792    0.78761    0.47348    1.000
    N3071    N        0.47514    0.80573    0.40568    1.000
    Si3072   Si       0.45851    0.82528    0.47584    1.000
    N3073    N        0.50265    0.91977    0.46491    1.000
    Si3074   Si       0.49399    0.95999    0.47445    1.000
    N3075    N        0.46294    0.94935    0.37210    1.000
    Si3076   Si       0.46812    0.89552    0.45279    1.000
    N3077    N        0.47766    0.77817    0.56714    1.000
    Si3078   Si       0.50413    0.80850    0.58410    1.000
    N3079    N        0.46817    0.82545    0.60518    1.000
    N3080    N        0.49348    0.88956    0.54471    1.000
    Si3081   Si       0.50816    0.96201    0.60603    1.000
    N3082    N        0.49603    0.96923    0.51792    1.000
    N3083    N        0.47519    0.94685    0.58060    1.000
    Si3084   Si       0.46994    0.90358    0.58070    1.000
    Si3085   Si       0.46242    0.96955    0.54480    1.000
    N3086    N        0.47362    0.89036    0.62112    1.000
    N3087    N        0.49755    0.00519    0.60664    1.000
    N3088    N        0.49795    0.84412    0.67134    1.000
    Si3089   Si       0.47540    0.78321    0.70082    1.000
    Si3090   Si       0.50255    0.87056    0.70502    1.000
    Si3091   Si       0.46476    0.85036    0.63929    1.000
    N3092    N        0.51576    0.76790    0.69688    1.000
    N3093    N        0.47992    0.96124    0.64469    1.000
    N3094    N        0.47620    0.88567    0.73908    1.000
    Si3095   Si       0.46914    0.00310    0.63939    1.000
    Si3096   Si       0.48411    0.92732    0.72259    1.000
    Si3097   Si       0.47081    0.92055    0.65224    1.000
    N3098    N        0.49857    0.91003    0.68451    1.000
    N3099    N        0.51672    0.94370    0.74490    1.000
    Si3100   Si       0.47495    0.86925    0.78035    1.000
    N3101    N        0.50980    0.84723    0.79439    1.000
    N3102    N        0.47575    0.78382    0.79974    1.000
    Si3103   Si       0.51158    0.80443    0.81131    1.000
    N3104    N        0.46536    0.82701    0.85897    1.000
    N3105    N        0.48571    0.95602    0.82827    1.000
    Si3106   Si       0.49633    0.91421    0.83618    1.000
    N3107    N        0.47258    0.99881    0.77904    1.000
    Si3108   Si       0.51241    0.98412    0.75996    1.000
    Si3109   Si       0.51646    0.98665    0.83107    1.000
    Si3110   Si       0.49108    0.79749    0.88300    1.000
    Si3111   Si       0.48177    0.85850    0.89232    1.000
    N3112    N        0.51853    0.83264    0.89917    1.000
    N3113    N        0.49675    0.89620    0.87802    1.000
    N3114    N        0.51724    0.94965    0.92630    1.000
    N3115    N        0.46523    0.99756    0.95092    1.000
    N3116    N        0.48344    0.99314    0.88755    1.000
    N3117    N        0.55567    0.04641    0.02360    1.000
    Si3118   Si       0.53816    0.08251    0.04126    1.000
    N3119    N        0.57142    0.09993    0.06362    1.000
    N3120    N        0.54668    0.10536    0.00250    1.000
    Si3121   Si       0.56443    0.13050    0.09404    1.000
    N3122    N        0.54725    0.17858    0.00903    1.000
    N3123    N        0.52722    0.15233    0.07870    1.000
    N3124    N        0.52465    0.23467    0.08827    1.000
    Si3125   Si       0.53926    0.21976    0.12728    1.000
    Si3126   Si       0.52723    0.11774    0.16557    1.000
    N3127    N        0.56046    0.04089    0.23624    1.000
    Si3128   Si       0.56602    0.06906    0.20585    1.000
    N3129    N        0.55585    0.11220    0.13226    1.000
    N3130    N        0.52861    0.07896    0.18537    1.000
    N3131    N        0.52593    0.24759    0.15684    1.000
    N3132    N        0.53145    0.21149    0.21638    1.000
    N3133    N        0.52855    0.18212    0.14363    1.000
    Si3134   Si       0.55779    0.14075    0.23442    1.000
    Si3135   Si       0.53183    0.25565    0.20141    1.000
    N3136    N        0.53119    0.14492    0.19926    1.000
    N3137    N        0.57026    0.25628    0.23453    1.000
    Si3138   Si       0.53841    0.10832    0.30284    1.000
    N3139    N        0.56985    0.02645    0.33548    1.000
    Si3140   Si       0.54185    0.04133    0.36579    1.000
    Si3141   Si       0.52281    0.04025    0.25760    1.000
    N3142    N        0.52291    0.06907    0.28983    1.000
    N3143    N        0.57387    0.11123    0.32576    1.000
    N3144    N        0.53374    0.13557    0.27027    1.000
    N3145    N        0.54892    0.21385    0.34452    1.000
    N3146    N        0.52784    0.21941    0.27777    1.000
    Si3147   Si       0.57468    0.24129    0.32372    1.000
    Si3148   Si       0.56192    0.21602    0.25275    1.000
    N3149    N        0.56344    0.11217    0.44241    1.000
    N3150    N        0.55148    0.07916    0.38179    1.000
    Si3151   Si       0.53357    0.08896    0.41963    1.000
    N3152    N        0.52246    0.05430    0.44220    1.000
    Si3153   Si       0.51975    0.01279    0.43017    1.000
    N3154    N        0.54986    0.18862    0.41106    1.000
    Si3155   Si       0.56949    0.21683    0.38339    1.000
    Si3156   Si       0.57192    0.15191    0.42746    1.000
    N3157    N        0.56396    0.25808    0.40066    1.000
    N3158    N        0.53469    0.21194    0.47166    1.000
    Si3159   Si       0.54498    0.06126    0.52228    1.000
    Si3160   Si       0.55460    0.07107    0.58953    1.000
    N3161    N        0.52853    0.02758    0.54285    1.000
    N3162    N        0.56914    0.10303    0.61556    1.000
    N3163    N        0.57186    0.03746    0.61185    1.000
    N3164    N        0.57366    0.07779    0.55138    1.000
    N3165    N        0.52511    0.13293    0.55944    1.000
    Si3166   Si       0.54926    0.16820    0.56181    1.000
    N3167    N        0.55813    0.17326    0.60240    1.000
    N3168    N        0.52554    0.20303    0.54706    1.000
    Si3169   Si       0.53068    0.23719    0.57322    1.000
    N3170    N        0.57322    0.23114    0.57782    1.000
    Si3171   Si       0.56523    0.21286    0.61884    1.000
    N3172    N        0.52689    0.23626    0.62060    1.000
    Si3173   Si       0.56518    0.03240    0.65340    1.000
    N3174    N        0.52547    0.03293    0.66279    1.000
    Si3175   Si       0.53036    0.05360    0.74494    1.000
    N3176    N        0.54663    0.14746    0.67045    1.000
    Si3177   Si       0.54986    0.13896    0.62706    1.000
    Si3178   Si       0.53423    0.05737    0.82475    1.000
    N3179    N        0.54001    0.09820    0.84038    1.000
    N3180    N        0.57299    0.04947    0.74597    1.000
    N3181    N        0.57730    0.04406    0.82415    1.000
    N3182    N        0.51998    0.15650    0.80227    1.000
    N3183    N        0.55712    0.21048    0.77108    1.000
    Si3184   Si       0.55936    0.17629    0.79913    1.000
    Si3185   Si       0.55432    0.21537    0.85871    1.000
    N3186    N        0.56964    0.25495    0.84852    1.000
    N3187    N        0.57580    0.18278    0.83747    1.000
    N3188    N        0.57517    0.06124    0.95356    1.000
    Si3189   Si       0.57156    0.09864    0.87360    1.000
    Si3190   Si       0.54377    0.05681    0.92547    1.000
    N3191    N        0.53824    0.09297    0.90575    1.000
    N3192    N        0.54970    0.01612    0.90927    1.000
    Si3193   Si       0.57629    0.07337    0.99477    1.000
    Si3194   Si       0.52906    0.14308    0.98506    1.000
    Si3195   Si       0.56243    0.17095    0.92528    1.000
    Si3196   Si       0.54072    0.23881    0.92785    1.000
    N3197    N        0.52975    0.15003    0.94345    1.000
    N3198    N        0.54519    0.20486    0.90115    1.000
    N3199    N        0.55824    0.29189    0.10808    1.000
    N3200    N        0.56479    0.34505    0.99911    1.000
    N3201    N        0.53564    0.36490    0.11710    1.000
    Si3202   Si       0.56278    0.25602    0.08539    1.000
    Si3203   Si       0.55768    0.38541    0.08778    1.000
    N3204    N        0.52029    0.46368    0.10188    1.000
    N3205    N        0.53667    0.38433    0.04964    1.000
    Si3206   Si       0.55919    0.38741    0.01357    1.000
    Si3207   Si       0.56012    0.46138    0.08638    1.000
    Si3208   Si       0.54323    0.49460    0.02028    1.000
    N3209    N        0.57025    0.47758    0.04703    1.000
    N3210    N        0.57328    0.42411    0.10049    1.000
    N3211    N        0.53083    0.36211    0.19065    1.000
    Si3212   Si       0.53393    0.29073    0.14491    1.000
    Si3213   Si       0.55726    0.36154    0.15499    1.000
    Si3214   Si       0.54497    0.32842    0.21482    1.000
    N3215    N        0.54764    0.29638    0.18639    1.000
    N3216    N        0.54971    0.40777    0.24395    1.000
    Si3217   Si       0.52019    0.47115    0.14543    1.000
    N3218    N        0.54712    0.44226    0.16552    1.000
    N3219    N        0.53642    0.47644    0.22271    1.000
    Si3220   Si       0.53579    0.43459    0.20864    1.000
    N3221    N        0.54939    0.27648    0.31409    1.000
    N3222    N        0.56760    0.33023    0.35951    1.000
    Si3223   Si       0.55907    0.28521    0.26892    1.000
    N3224    N        0.53162    0.31504    0.25413    1.000
    N3225    N        0.55054    0.41417    0.31796    1.000
    Si3226   Si       0.53151    0.42369    0.27897    1.000
    Si3227   Si       0.52564    0.49655    0.25877    1.000
    N3228    N        0.52552    0.50684    0.34165    1.000
    N3229    N        0.57030    0.35410    0.47741    1.000
    Si3230   Si       0.53005    0.34155    0.37910    1.000
    Si3231   Si       0.52367    0.27477    0.40827    1.000
    N3232    N        0.53348    0.36749    0.41550    1.000
    Si3233   Si       0.55400    0.31390    0.47109    1.000
    Si3234   Si       0.57231    0.36946    0.43736    1.000
    N3235    N        0.52393    0.30048    0.44274    1.000
    Si3236   Si       0.56207    0.45211    0.42551    1.000
    N3237    N        0.56352    0.47296    0.46298    1.000
    N3238    N        0.52029    0.41156    0.47279    1.000
    N3239    N        0.51927    0.44283    0.41402    1.000
    Si3240   Si       0.55099    0.44087    0.48965    1.000
    N3241    N        0.54550    0.34235    0.58178    1.000
    N3242    N        0.53315    0.30664    0.50675    1.000
    Si3243   Si       0.52650    0.30540    0.59447    1.000
    N3244    N        0.56311    0.28874    0.61440    1.000
    N3245    N        0.53716    0.46086    0.52492    1.000
    Si3246   Si       0.53477    0.42932    0.55524    1.000
    Si3247   Si       0.53131    0.50131    0.53493    1.000
    N3248    N        0.57538    0.42463    0.57221    1.000
    Si3249   Si       0.57549    0.41534    0.61423    1.000
    N3250    N        0.54882    0.28465    0.68175    1.000
    Si3251   Si       0.53400    0.27290    0.64173    1.000
    Si3252   Si       0.52189    0.28008    0.71558    1.000
    N3253    N        0.51957    0.48330    0.65029    1.000
    N3254    N        0.55642    0.50136    0.69701    1.000
    N3255    N        0.53765    0.42675    0.69263    1.000
    Si3256   Si       0.52859    0.50003    0.73295    1.000
    Si3257   Si       0.55112    0.46139    0.66949    1.000
    N3258    N        0.53956    0.40185    0.63109    1.000
    Si3259   Si       0.54670    0.38962    0.67252    1.000
    Si3260   Si       0.55073    0.42807    0.73656    1.000
    Si3261   Si       0.53930    0.36726    0.78117    1.000
    N3262    N        0.53311    0.28240    0.75841    1.000
    N3263    N        0.56364    0.33361    0.79673    1.000
    Si3264   Si       0.53846    0.28110    0.86267    1.000
    Si3265   Si       0.57068    0.30220    0.76859    1.000
    N3266    N        0.55332    0.32117    0.86517    1.000
    Si3267   Si       0.55070    0.39918    0.85272    1.000
    N3268    N        0.56214    0.44192    0.85952    1.000
    N3269    N        0.52883    0.39270    0.81456    1.000
    N3270    N        0.55681    0.38674    0.74810    1.000
    N3271    N        0.52180    0.45870    0.74873    1.000
    Si3272   Si       0.53955    0.31870    0.97629    1.000
    N3273    N        0.55635    0.32434    0.93361    1.000
    Si3274   Si       0.53360    0.34051    0.89941    1.000
    N3275    N        0.52097    0.26688    0.90157    1.000
    N3276    N        0.54919    0.27880    0.99398    1.000
    N3277    N        0.53567    0.38320    0.88972    1.000
    Si3278   Si       0.54024    0.46592    0.88906    1.000
    Si3279   Si       0.54937    0.44094    0.95783    1.000
    N3280    N        0.55962    0.49489    0.91219    1.000
    N3281    N        0.55476    0.47929    0.97966    1.000
    N3282    N        0.53506    0.40733    0.98398    1.000
    N3283    N        0.52649    0.43935    0.92121    1.000
    N3284    N        0.54823    0.54030    0.02224    1.000
    N3285    N        0.55982    0.56300    0.10335    1.000
    Si3286   Si       0.52055    0.58126    0.11121    1.000
    N3287    N        0.51497    0.62145    0.09455    1.000
    N3288    N        0.54761    0.68002    0.01257    1.000
    Si3289   Si       0.55278    0.70261    0.04962    1.000
    N3290    N        0.54305    0.74507    0.04698    1.000
    Si3291   Si       0.53543    0.65536    0.11260    1.000
    N3292    N        0.52908    0.69076    0.08735    1.000
    Si3293   Si       0.56308    0.52753    0.12757    1.000
    N3294    N        0.56374    0.60735    0.19879    1.000
    Si3295   Si       0.54724    0.57793    0.22833    1.000
    N3296    N        0.52968    0.51466    0.14908    1.000
    Si3297   Si       0.52666    0.61967    0.17863    1.000
    N3298    N        0.52535    0.68619    0.21853    1.000
    Si3299   Si       0.53646    0.69521    0.17691    1.000
    N3300    N        0.52591    0.65773    0.15515    1.000
    N3301    N        0.57711    0.70090    0.16109    1.000
    N3302    N        0.54357    0.59523    0.26874    1.000
    N3303    N        0.56516    0.56094    0.33299    1.000
    Si3304   Si       0.55977    0.51960    0.32124    1.000
    N3305    N        0.55755    0.52107    0.27794    1.000
    Si3306   Si       0.57358    0.59009    0.30105    1.000
    N3307    N        0.55427    0.67205    0.28762    1.000
    Si3308   Si       0.55027    0.64831    0.32578    1.000
    N3309    N        0.52845    0.73656    0.26889    1.000
    N3310    N        0.55516    0.66476    0.36674    1.000
    Si3311   Si       0.54766    0.69933    0.25598    1.000
    Si3312   Si       0.56770    0.56638    0.37630    1.000
    N3313    N        0.52707    0.62383    0.42571    1.000
    N3314    N        0.52573    0.56501    0.38968    1.000
    Si3315   Si       0.57480    0.51136    0.48326    1.000
    Si3316   Si       0.51984    0.64843    0.45900    1.000
    N3317    N        0.54610    0.74862    0.46658    1.000
    Si3318   Si       0.54106    0.72257    0.43329    1.000
    Si3319   Si       0.55755    0.63536    0.40030    1.000
    N3320    N        0.57132    0.72646    0.40268    1.000
    N3321    N        0.55384    0.64373    0.48748    1.000
    Si3322   Si       0.55486    0.60587    0.51475    1.000
    Si3323   Si       0.55804    0.54683    0.59375    1.000
    Si3324   Si       0.55329    0.60947    0.58771    1.000
    N3325    N        0.52536    0.57449    0.58668    1.000
    N3326    N        0.56323    0.51850    0.56219    1.000
    N3327    N        0.53577    0.52499    0.49738    1.000
    N3328    N        0.55536    0.63062    0.54957    1.000
    Si3329   Si       0.55794    0.72664    0.56454    1.000
    Si3330   Si       0.54520    0.66542    0.52512    1.000
    N3331    N        0.56555    0.70320    0.52978    1.000
    N3332    N        0.51657    0.71962    0.57010    1.000
    N3333    N        0.54677    0.62236    0.62855    1.000
    Si3334   Si       0.56204    0.59693    0.72824    1.000
    Si3335   Si       0.54020    0.52055    0.66043    1.000
    N3336    N        0.57140    0.52264    0.63120    1.000
    N3337    N        0.56136    0.63119    0.70208    1.000
    Si3338   Si       0.57483    0.63464    0.66094    1.000
    Si3339   Si       0.55289    0.67537    0.70426    1.000
    N3340    N        0.54678    0.74140    0.64457    1.000
    N3341    N        0.56902    0.67799    0.66047    1.000
    N3342    N        0.54235    0.59054    0.82242    1.000
    Si3343   Si       0.53503    0.55727    0.84830    1.000
    N3344    N        0.54105    0.51677    0.82925    1.000
    N3345    N        0.56109    0.51726    0.75805    1.000
    Si3346   Si       0.57181    0.51886    0.79842    1.000
    N3347    N        0.56159    0.71551    0.78538    1.000
    Si3348   Si       0.54487    0.68251    0.86128    1.000
    N3349    N        0.53439    0.66189    0.82442    1.000
    N3350    N        0.56340    0.72459    0.85297    1.000
    Si3351   Si       0.54700    0.74125    0.81618    1.000
    Si3352   Si       0.52790    0.68925    0.79213    1.000
    N3353    N        0.55365    0.55842    0.88473    1.000
    N3354    N        0.53896    0.60086    0.98422    1.000
    N3355    N        0.56187    0.54751    0.95354    1.000
    Si3356   Si       0.56404    0.56624    0.99193    1.000
    Si3357   Si       0.54487    0.62589    0.94892    1.000
    Si3358   Si       0.54094    0.50842    0.94935    1.000
    N3359    N        0.57712    0.61016    0.92346    1.000
    N3360    N        0.52977    0.75524    0.90932    1.000
    N3361    N        0.56773    0.66418    0.95101    1.000
    Si3362   Si       0.54882    0.78065    0.06983    1.000
    Si3363   Si       0.53759    0.81818    0.00707    1.000
    N3364    N        0.54152    0.86673    0.08175    1.000
    N3365    N        0.53254    0.78045    0.11088    1.000
    N3366    N        0.52832    0.86076    0.00909    1.000
    N3367    N        0.52153    0.80745    0.04757    1.000
    N3368    N        0.55651    0.98040    0.09930    1.000
    Si3369   Si       0.53096    0.95828    0.07251    1.000
    N3370    N        0.55744    0.92707    0.05344    1.000
    Si3371   Si       0.54758    0.00532    0.01748    1.000
    Si3372   Si       0.57649    0.89137    0.07052    1.000
    Si3373   Si       0.57888    0.93968    0.01720    1.000
    Si3374   Si       0.54196    0.86029    0.12484    1.000
    Si3375   Si       0.55884    0.80576    0.21487    1.000
    Si3376   Si       0.56178    0.79495    0.14007    1.000
    Si3377   Si       0.55875    0.87515    0.22563    1.000
    N3378    N        0.53846    0.79866    0.17702    1.000
    N3379    N        0.57616    0.83694    0.13634    1.000
    N3380    N        0.51962    0.88602    0.20767    1.000
    N3381    N        0.54583    0.90002    0.14322    1.000
    N3382    N        0.56998    0.97423    0.21412    1.000
    Si3383   Si       0.54315    0.93916    0.22037    1.000
    Si3384   Si       0.55165    0.79237    0.33979    1.000
    N3385    N        0.53428    0.82952    0.32133    1.000
    Si3386   Si       0.56080    0.83542    0.28537    1.000
    N3387    N        0.55231    0.87556    0.26891    1.000
    Si3388   Si       0.55370    0.77127    0.26679    1.000
    N3389    N        0.54016    0.81133    0.25425    1.000
    N3390    N        0.57363    0.77945    0.30270    1.000
    N3391    N        0.51749    0.76790    0.35405    1.000
    Si3392   Si       0.56118    0.99459    0.30511    1.000
    N3393    N        0.56003    0.95658    0.32475    1.000
    N3394    N        0.52516    0.00452    0.28291    1.000
    N3395    N        0.52500    0.93524    0.25982    1.000
    Si3396   Si       0.57184    0.93374    0.35968    1.000
    N3397    N        0.53072    0.81349    0.44270    1.000
    Si3398   Si       0.55837    0.83717    0.46815    1.000
    N3399    N        0.54192    0.87474    0.42897    1.000
    N3400    N        0.54671    0.00870    0.39838    1.000
    Si3401   Si       0.54176    0.88699    0.38859    1.000
    N3402    N        0.52973    0.92655    0.37533    1.000
    N3403    N        0.52795    0.97989    0.45767    1.000
    Si3404   Si       0.56742    0.96609    0.47058    1.000
    Si3405   Si       0.54001    0.89876    0.46369    1.000
    N3406    N        0.57368    0.92491    0.46123    1.000
    Si3407   Si       0.56192    0.80481    0.54232    1.000
    Si3408   Si       0.53236    0.86827    0.53851    1.000
    N3409    N        0.52551    0.82731    0.55057    1.000
    N3410    N        0.53073    0.80475    0.61708    1.000
    N3411    N        0.56892    0.76824    0.56047    1.000
    N3412    N        0.56779    0.80540    0.49930    1.000
    N3413    N        0.54088    0.86837    0.49628    1.000
    N3414    N        0.56080    0.89084    0.56305    1.000
    Si3415   Si       0.53333    0.98494    0.53514    1.000
    Si3416   Si       0.56020    0.92948    0.58450    1.000
    N3417    N        0.53988    0.96659    0.57233    1.000
    N3418    N        0.57121    0.97286    0.51449    1.000
    Si3419   Si       0.56280    0.78031    0.63486    1.000
    Si3420   Si       0.53318    0.83212    0.65190    1.000
    N3421    N        0.55661    0.87029    0.65836    1.000
    Si3422   Si       0.55264    0.78526    0.70910    1.000
    N3423    N        0.56490    0.80854    0.67273    1.000
    N3424    N        0.55018    0.81647    0.74013    1.000
    Si3425   Si       0.56960    0.85545    0.74086    1.000
    N3426    N        0.54040    0.88246    0.72492    1.000
    Si3427   Si       0.55540    0.92378    0.73605    1.000
    N3428    N        0.53745    0.92998    0.62337    1.000
    N3429    N        0.56383    0.93340    0.69294    1.000
    Si3430   Si       0.54035    0.91001    0.66366    1.000
    Si3431   Si       0.54511    0.86719    0.80713    1.000
    N3432    N        0.54290    0.77892    0.79437    1.000
    N3433    N        0.56241    0.83859    0.83347    1.000
    Si3434   Si       0.57061    0.78987    0.76599    1.000
    N3435    N        0.57695    0.87573    0.77838    1.000
    N3436    N        0.52098    0.79522    0.85219    1.000
    Si3437   Si       0.55250    0.82043    0.87085    1.000
    N3438    N        0.54053    0.96686    0.86109    1.000
    N3439    N        0.53962    0.98634    0.79399    1.000
    Si3440   Si       0.56122    0.92887    0.85188    1.000
    N3441    N        0.53634    0.90504    0.82479    1.000
    Si3442   Si       0.58266    0.97001    0.79062    1.000
    Si3443   Si       0.53024    0.84080    0.94062    1.000
    Si3444   Si       0.53323    0.76468    0.95494    1.000
    N3445    N        0.52315    0.80532    0.96784    1.000
    N3446    N        0.57321    0.83992    0.94098    1.000
    Si3447   Si       0.56839    0.75555    0.88711    1.000
    Si3448   Si       0.52303    0.89638    0.98462    1.000
    Si3449   Si       0.54679    0.95959    0.95555    1.000
    Si3450   Si       0.52266    0.91132    0.90940    1.000
    N3451    N        0.56399    0.91008    0.89181    1.000
    N3452    N        0.52025    0.88309    0.94358    1.000
    Si3453   Si       0.52352    0.98322    0.89889    1.000
    N3454    N        0.55474    0.92853    0.98428    1.000
    N3455    N        0.53586    0.99498    0.97828    1.000
    Si3456   Si       0.61059    0.08161    0.05648    1.000
    N3457    N        0.62069    0.03777    0.06301    1.000
    N3458    N        0.61346    0.08007    0.11113    1.000
    N3459    N        0.61441    0.08001    0.00934    1.000
    Si3460   Si       0.63482    0.04267    0.10344    1.000
    Si3461   Si       0.61071    0.20110    0.10247    1.000
    N3462    N        0.61401    0.17066    0.02355    1.000
    N3463    N        0.60148    0.15640    0.09728    1.000
    N3464    N        0.57908    0.22809    0.11381    1.000
    N3465    N        0.63433    0.22343    0.07467    1.000
    N3466    N        0.58182    0.10619    0.22190    1.000
    Si3467   Si       0.62177    0.11157    0.20345    1.000
    Si3468   Si       0.59207    0.09103    0.14574    1.000
    N3469    N        0.59988    0.06269    0.17912    1.000
    Si3470   Si       0.62651    0.02839    0.17273    1.000
    N3471    N        0.62196    0.01424    0.13278    1.000
    N3472    N        0.61735    0.12495    0.16258    1.000
    Si3473   Si       0.62086    0.18250    0.24207    1.000
    N3474    N        0.63467    0.19219    0.13830    1.000
    Si3475   Si       0.62927    0.14986    0.13013    1.000
    N3476    N        0.62434    0.21282    0.21184    1.000
    N3477    N        0.57924    0.17629    0.24475    1.000
    Si3478   Si       0.61352    0.25303    0.21921    1.000
    Si3479   Si       0.61027    0.04056    0.34601    1.000
    Si3480   Si       0.58230    0.10555    0.36527    1.000
    N3481    N        0.61582    0.07816    0.36570    1.000
    N3482    N        0.59492    0.22578    0.28727    1.000
    N3483    N        0.60891    0.20340    0.36683    1.000
    N3484    N        0.61771    0.01770    0.38410    1.000
    N3485    N        0.61612    0.06196    0.44039    1.000
    Si3486   Si       0.62792    0.01868    0.45166    1.000
    Si3487   Si       0.58885    0.08512    0.46771    1.000
    Si3488   Si       0.63589    0.06810    0.40156    1.000
    N3489    N        0.57768    0.05034    0.49626    1.000
    N3490    N        0.58811    0.17327    0.46437    1.000
    N3491    N        0.58974    0.14149    0.38820    1.000
    Si3492   Si       0.57860    0.21583    0.46641    1.000
    N3493    N        0.61009    0.23085    0.43673    1.000
    Si3494   Si       0.62480    0.16326    0.37624    1.000
    Si3495   Si       0.61015    0.10370    0.54047    1.000
    Si3496   Si       0.61230    0.02651    0.59640    1.000
    Si3497   Si       0.61051    0.03976    0.52215    1.000
    N3498    N        0.60497    0.01362    0.55548    1.000
    N3499    N        0.59926    0.11514    0.49908    1.000
    N3500    N        0.63179    0.06131    0.61850    1.000
    N3501    N        0.63135    0.13102    0.56646    1.000
    N3502    N        0.59300    0.23709    0.50280    1.000
    Si3503   Si       0.59484    0.21745    0.54177    1.000
    N3504    N        0.58525    0.17281    0.53452    1.000
    Si3505   Si       0.60466    0.15664    0.49898    1.000
    N3506    N        0.58494    0.06715    0.67234    1.000
    Si3507   Si       0.60267    0.08923    0.63909    1.000
    N3508    N        0.59055    0.11212    0.72461    1.000
    Si3509   Si       0.59399    0.07031    0.71456    1.000
    N3510    N        0.63369    0.04964    0.71156    1.000
    N3511    N        0.61395    0.12567    0.66161    1.000
    Si3512   Si       0.62698    0.01014    0.69515    1.000
    Si3513   Si       0.58622    0.14254    0.69134    1.000
    N3514    N        0.60152    0.17914    0.70817    1.000
    N3515    N        0.59175    0.21891    0.65154    1.000
    Si3516   Si       0.60557    0.21987    0.69343    1.000
    N3517    N        0.59052    0.25054    0.71964    1.000
    Si3518   Si       0.60566    0.03842    0.85768    1.000
    N3519    N        0.61978    0.07862    0.78037    1.000
    Si3520   Si       0.59417    0.04354    0.78403    1.000
    N3521    N        0.60882    0.11334    0.84978    1.000
    Si3522   Si       0.60795    0.11731    0.76471    1.000
    Si3523   Si       0.60195    0.15498    0.86110    1.000
    Si3524   Si       0.59148    0.23782    0.76166    1.000
    N3525    N        0.58785    0.15253    0.77642    1.000
    N3526    N        0.62753    0.21363    0.76520    1.000
    Si3527   Si       0.61638    0.17459    0.75028    1.000
    Si3528   Si       0.61291    0.05969    0.93146    1.000
    N3529    N        0.59471    0.06415    0.89189    1.000
    N3530    N        0.61994    0.01557    0.93735    1.000
    N3531    N        0.58022    0.25507    0.93468    1.000
    N3532    N        0.61147    0.23319    0.99035    1.000
    Si3533   Si       0.61140    0.22533    0.94552    1.000
    N3534    N        0.57920    0.14317    0.89606    1.000
    N3535    N        0.58937    0.18853    0.95328    1.000
    Si3536   Si       0.58876    0.19105    0.99691    1.000
    Si3537   Si       0.59116    0.31976    0.10543    1.000
    Si3538   Si       0.62005    0.37202    0.04927    1.000
    N3539    N        0.59156    0.35752    0.07963    1.000
    Si3540   Si       0.58928    0.26766    0.00679    1.000
    N3541    N        0.62716    0.29751    0.09637    1.000
    Si3542   Si       0.62650    0.26687    0.06718    1.000
    N3543    N        0.58575    0.26765    0.05055    1.000
    N3544    N        0.60302    0.39164    0.01464    1.000
    Si3545   Si       0.60980    0.49970    0.04942    1.000
    N3546    N        0.61529    0.50615    0.00726    1.000
    N3547    N        0.58249    0.48976    0.11024    1.000
    N3548    N        0.63452    0.44475    0.99877    1.000
    Si3549   Si       0.58282    0.37544    0.24433    1.000
    N3550    N        0.58603    0.33989    0.21928    1.000
    Si3551   Si       0.60777    0.31953    0.18334    1.000
    N3552    N        0.62550    0.28141    0.18865    1.000
    N3553    N        0.58583    0.32843    0.14764    1.000
    Si3554   Si       0.61507    0.49200    0.13880    1.000
    N3555    N        0.61915    0.45150    0.15316    1.000
    N3556    N        0.61432    0.39812    0.22519    1.000
    N3557    N        0.59023    0.39111    0.16047    1.000
    Si3558   Si       0.62447    0.38757    0.18614    1.000
    Si3559   Si       0.58271    0.43067    0.14408    1.000
    Si3560   Si       0.61963    0.34027    0.28977    1.000
    N3561    N        0.59338    0.30589    0.28473    1.000
    N3562    N        0.62429    0.33077    0.33377    1.000
    N3563    N        0.60526    0.26496    0.34396    1.000
    Si3564   Si       0.58709    0.30158    0.33132    1.000
    N3565    N        0.59469    0.37430    0.28553    1.000
    Si3566   Si       0.60690    0.35151    0.36941    1.000
    N3567    N        0.60180    0.39310    0.35780    1.000
    N3568    N        0.62020    0.43554    0.29843    1.000
    Si3569   Si       0.62533    0.47875    0.30624    1.000
    Si3570   Si       0.59280    0.40564    0.31634    1.000
    N3571    N        0.59524    0.49634    0.33201    1.000
    Si3572   Si       0.63334    0.42151    0.25503    1.000
    N3573    N        0.62840    0.50454    0.27146    1.000
    Si3574   Si       0.60007    0.27194    0.42321    1.000
    N3575    N        0.58730    0.29029    0.46036    1.000
    N3576    N        0.60229    0.34831    0.41415    1.000
    N3577    N        0.63406    0.37400    0.48348    1.000
    N3578    N        0.63635    0.29242    0.41296    1.000
    Si3579   Si       0.61116    0.27444    0.49519    1.000
    N3580    N        0.63657    0.49633    0.40755    1.000
    Si3581   Si       0.60490    0.41647    0.39281    1.000
    N3582    N        0.58525    0.41126    0.43541    1.000
    N3583    N        0.58699    0.45645    0.38700    1.000
    Si3584   Si       0.60267    0.49428    0.37546    1.000
    Si3585   Si       0.61442    0.41111    0.46785    1.000
    N3586    N        0.61767    0.32126    0.58839    1.000
    N3587    N        0.59959    0.37100    0.54626    1.000
    Si3588   Si       0.58737    0.35104    0.58250    1.000
    N3589    N        0.61389    0.31175    0.51865    1.000
    Si3590   Si       0.60320    0.35242    0.50687    1.000
    N3591    N        0.59584    0.37537    0.61904    1.000
    Si3592   Si       0.60650    0.29127    0.62057    1.000
    N3593    N        0.63280    0.25875    0.61451    1.000
    Si3594   Si       0.60465    0.41453    0.54289    1.000
    N3595    N        0.62264    0.49219    0.59157    1.000
    N3596    N        0.58881    0.42305    0.50221    1.000
    N3597    N        0.60752    0.50107    0.51480    1.000
    N3598    N        0.62369    0.38133    0.74606    1.000
    N3599    N        0.58352    0.31886    0.73218    1.000
    Si3600   Si       0.58850    0.36315    0.72846    1.000
    Si3601   Si       0.60638    0.35074    0.65324    1.000
    N3602    N        0.60927    0.30725    0.66203    1.000
    Si3603   Si       0.58814    0.29136    0.69844    1.000
    N3604    N        0.58159    0.36843    0.68388    1.000
    N3605    N        0.62079    0.50471    0.73669    1.000
    Si3606   Si       0.62998    0.42319    0.73573    1.000
    N3607    N        0.59200    0.44229    0.74013    1.000
    N3608    N        0.58053    0.45305    0.63977    1.000
    Si3609   Si       0.60050    0.48937    0.62819    1.000
    N3610    N        0.63502    0.49028    0.65451    1.000
    N3611    N        0.61613    0.31457    0.83416    1.000
    N3612    N        0.59303    0.27143    0.78750    1.000
    Si3613   Si       0.60404    0.27307    0.83146    1.000
    N3614    N        0.58934    0.37863    0.84665    1.000
    Si3615   Si       0.58130    0.33851    0.83600    1.000
    Si3616   Si       0.59658    0.46079    0.84191    1.000
    Si3617   Si       0.61064    0.47202    0.76501    1.000
    N3618    N        0.59442    0.48028    0.80329    1.000
    Si3619   Si       0.62966    0.39251    0.85630    1.000
    N3620    N        0.63199    0.43352    0.84201    1.000
    N3621    N        0.61845    0.48945    0.86976    1.000
    Si3622   Si       0.59265    0.29794    0.94114    1.000
    N3623    N        0.60641    0.30014    0.98148    1.000
    N3624    N        0.61746    0.36491    0.95756    1.000
    N3625    N        0.62763    0.30771    0.91980    1.000
    Si3626   Si       0.60965    0.34299    0.99486    1.000
    N3627    N        0.62006    0.50018    0.94506    1.000
    N3628    N        0.59202    0.43451    0.95718    1.000
    Si3629   Si       0.62019    0.40739    0.97486    1.000
    Si3630   Si       0.60351    0.47266    0.97790    1.000
    Si3631   Si       0.59594    0.57330    0.08385    1.000
    N3632    N        0.59248    0.60626    0.05474    1.000
    Si3633   Si       0.61658    0.60696    0.01784    1.000
    N3634    N        0.61664    0.53652    0.07252    1.000
    N3635    N        0.62690    0.57977    0.11546    1.000
    N3636    N        0.59248    0.68951    0.05853    1.000
    Si3637   Si       0.59961    0.64481    0.07274    1.000
    Si3638   Si       0.63055    0.69734    0.07852    1.000
    N3639    N        0.58012    0.64901    0.11125    1.000
    N3640    N        0.58263    0.54940    0.22746    1.000
    N3641    N        0.62984    0.58003    0.18821    1.000
    N3642    N        0.59533    0.52546    0.15785    1.000
    Si3643   Si       0.60743    0.54246    0.19422    1.000
    Si3644   Si       0.60489    0.61650    0.20330    1.000
    N3645    N        0.61704    0.63070    0.24144    1.000
    Si3646   Si       0.61027    0.73717    0.23438    1.000
    N3647    N        0.62303    0.73380    0.19312    1.000
    Si3648   Si       0.60779    0.72975    0.15188    1.000
    N3649    N        0.62858    0.69872    0.12466    1.000
    Si3650   Si       0.60124    0.66919    0.14185    1.000
    N3651    N        0.61713    0.63918    0.16885    1.000
    N3652    N        0.59017    0.70116    0.24581    1.000
    N3653    N        0.61096    0.56945    0.28850    1.000
    Si3654   Si       0.59721    0.53459    0.26559    1.000
    N3655    N        0.58873    0.62762    0.31832    1.000
    Si3656   Si       0.59689    0.66254    0.27085    1.000
    N3657    N        0.62121    0.67400    0.36714    1.000
    Si3658   Si       0.62697    0.64474    0.33464    1.000
    N3659    N        0.62992    0.67280    0.29714    1.000
    Si3660   Si       0.62127    0.61065    0.41332    1.000
    N3661    N        0.59619    0.54146    0.45785    1.000
    N3662    N        0.58793    0.53212    0.38979    1.000
    N3663    N        0.58430    0.60140    0.39344    1.000
    Si3664   Si       0.61851    0.53607    0.41929    1.000
    Si3665   Si       0.61210    0.57606    0.47761    1.000
    N3666    N        0.61076    0.61196    0.45465    1.000
    Si3667   Si       0.58566    0.68943    0.38649    1.000
    N3668    N        0.61057    0.74683    0.49539    1.000
    Si3669   Si       0.59133    0.65077    0.46339    1.000
    N3670    N        0.58082    0.66509    0.42519    1.000
    N3671    N        0.61476    0.67291    0.49039    1.000
    Si3672   Si       0.61501    0.58547    0.55235    1.000
    N3673    N        0.58991    0.58353    0.51352    1.000
    N3674    N        0.58675    0.58055    0.58397    1.000
    Si3675   Si       0.60638    0.51299    0.55667    1.000
    Si3676   Si       0.60516    0.70901    0.51353    1.000
    N3677    N        0.58508    0.70835    0.59671    1.000
    Si3678   Si       0.62613    0.69843    0.58849    1.000
    N3679    N        0.63424    0.69802    0.54521    1.000
    N3680    N        0.61063    0.60947    0.65748    1.000
    Si3681   Si       0.58467    0.52270    0.72104    1.000
    Si3682   Si       0.61928    0.58282    0.69274    1.000
    N3683    N        0.58519    0.56460    0.71101    1.000
    N3684    N        0.58683    0.69475    0.72345    1.000
    Si3685   Si       0.62105    0.70375    0.69657    1.000
    Si3686   Si       0.58022    0.71441    0.64000    1.000
    N3687    N        0.61100    0.73003    0.66522    1.000
    N3688    N        0.59587    0.55248    0.81231    1.000
    Si3689   Si       0.62474    0.61972    0.76367    1.000
    N3690    N        0.58211    0.60800    0.76421    1.000
    N3691    N        0.60352    0.62722    0.82306    1.000
    Si3692   Si       0.58219    0.59414    0.80508    1.000
    Si3693   Si       0.59178    0.72586    0.75388    1.000
    N3694    N        0.62227    0.74409    0.78387    1.000
    N3695    N        0.62607    0.69894    0.83566    1.000
    Si3696   Si       0.60097    0.70643    0.86967    1.000
    Si3697   Si       0.63474    0.65709    0.82316    1.000
    Si3698   Si       0.57861    0.56780    0.91853    1.000
    N3699    N        0.61642    0.55095    0.90649    1.000
    Si3700   Si       0.62869    0.53389    0.97624    1.000
    N3701    N        0.60691    0.57150    0.99225    1.000
    Si3702   Si       0.60035    0.51033    0.90265    1.000
    N3703    N        0.63538    0.65643    0.92339    1.000
    N3704    N        0.61763    0.64424    0.99366    1.000
    Si3705   Si       0.58413    0.67627    0.98933    1.000
    Si3706   Si       0.59292    0.65148    0.91768    1.000
    N3707    N        0.60176    0.73133    0.90538    1.000
    N3708    N        0.60856    0.71201    0.98247    1.000
    Si3709   Si       0.60862    0.73979    0.94749    1.000
    N3710    N        0.58121    0.66973    0.88192    1.000
    Si3711   Si       0.60813    0.82169    0.04646    1.000
    N3712    N        0.60547    0.86550    0.04977    1.000
    N3713    N        0.59067    0.79250    0.07333    1.000
    Si3714   Si       0.62502    0.77418    0.10087    1.000
    N3715    N        0.58077    0.81404    0.01101    1.000
    N3716    N        0.61839    0.92314    0.01176    1.000
    N3717    N        0.60113    0.90975    0.10061    1.000
    Si3718   Si       0.61954    0.99833    0.04332    1.000
    N3719    N        0.62513    0.97311    0.08030    1.000
    N3720    N        0.58335    0.98293    0.02486    1.000
    Si3721   Si       0.59743    0.98248    0.11495    1.000
    Si3722   Si       0.60350    0.84638    0.17022    1.000
    N3723    N        0.59278    0.76556    0.13283    1.000
    N3724    N        0.57753    0.84265    0.20465    1.000
    N3725    N        0.57583    0.76815    0.22930    1.000
    Si3726   Si       0.62265    0.90321    0.22716    1.000
    N3727    N        0.62448    0.99936    0.20717    1.000
    Si3728   Si       0.58701    0.91296    0.14084    1.000
    N3729    N        0.59493    0.95438    0.15086    1.000
    N3730    N        0.61721    0.88754    0.16210    1.000
    N3731    N        0.58039    0.91504    0.21756    1.000
    Si3732   Si       0.60381    0.95938    0.19267    1.000
    Si3733   Si       0.58949    0.00709    0.23515    1.000
    N3734    N        0.60323    0.83195    0.27687    1.000
    Si3735   Si       0.61448    0.79275    0.29378    1.000
    N3736    N        0.58183    0.79206    0.37131    1.000
    Si3737   Si       0.62483    0.80105    0.37018    1.000
    N3738    N        0.63096    0.76255    0.26678    1.000
    Si3739   Si       0.62989    0.98513    0.29361    1.000
    N3740    N        0.59318    0.99691    0.27661    1.000
    N3741    N        0.62319    0.89831    0.27127    1.000
    N3742    N        0.63458    0.95283    0.32325    1.000
    N3743    N        0.59385    0.78711    0.43781    1.000
    N3744    N        0.62873    0.83443    0.39698    1.000
    Si3745   Si       0.62126    0.82122    0.43944    1.000
    N3746    N        0.59972    0.85563    0.45861    1.000
    Si3747   Si       0.62132    0.87767    0.38046    1.000
    Si3748   Si       0.59381    0.76261    0.40299    1.000
    Si3749   Si       0.57902    0.77012    0.47610    1.000
    N3750    N        0.63584    0.76566    0.39216    1.000
    Si3751   Si       0.60733    0.89812    0.45154    1.000
    Si3752   Si       0.58530    0.99217    0.40383    1.000
    N3753    N        0.59990    0.95876    0.38094    1.000
    N3754    N        0.59368    0.99119    0.44719    1.000
    N3755    N        0.58118    0.89108    0.36855    1.000
    N3756    N        0.59301    0.82837    0.56439    1.000
    Si3757   Si       0.61693    0.79350    0.57976    1.000
    Si3758   Si       0.60045    0.87198    0.56716    1.000
    N3759    N        0.61828    0.87917    0.60692    1.000
    N3760    N        0.60326    0.77788    0.62025    1.000
    N3761    N        0.60128    0.94259    0.57815    1.000
    Si3762   Si       0.60276    0.97086    0.54452    1.000
    Si3763   Si       0.62643    0.92225    0.60864    1.000
    N3764    N        0.63320    0.88858    0.54221    1.000
    N3765    N        0.60302    0.85001    0.71573    1.000
    Si3766   Si       0.58964    0.84507    0.67467    1.000
    N3767    N        0.62996    0.83308    0.66359    1.000
    N3768    N        0.57711    0.76065    0.73315    1.000
    Si3769   Si       0.63554    0.94406    0.74777    1.000
    N3770    N        0.61560    0.94411    0.64495    1.000
    N3771    N        0.62540    0.97031    0.71167    1.000
    Si3772   Si       0.59552    0.95936    0.67943    1.000
    N3773    N        0.58833    0.00128    0.67186    1.000
    N3774    N        0.60345    0.81150    0.78074    1.000
    Si3775   Si       0.60465    0.83493    0.81660    1.000
    N3776    N        0.61852    0.87460    0.82623    1.000
    N3777    N        0.63444    0.81066    0.83823    1.000
    Si3778   Si       0.63627    0.78463    0.76987    1.000
    N3779    N        0.61033    0.00289    0.78547    1.000
    N3780    N        0.59594    0.94161    0.82363    1.000
    Si3781   Si       0.62550    0.96011    0.85374    1.000
    Si3782   Si       0.60189    0.90677    0.79467    1.000
    N3783    N        0.58900    0.93901    0.75986    1.000
    N3784    N        0.58577    0.79700    0.88418    1.000
    Si3785   Si       0.61373    0.85550    0.93562    1.000
    Si3786   Si       0.58932    0.80808    0.96778    1.000
    Si3787   Si       0.62726    0.81098    0.88118    1.000
    N3788    N        0.63049    0.82273    0.96020    1.000
    N3789    N        0.63541    0.85136    0.89814    1.000
    N3790    N        0.57770    0.76786    0.95852    1.000
    N3791    N        0.61498    0.89762    0.94396    1.000
    N3792    N        0.60568    0.99515    0.87124    1.000
    N3793    N        0.62811    0.92751    0.88382    1.000
    Si3794   Si       0.59659    0.92310    0.91487    1.000
    N3795    N        0.58096    0.96019    0.93004    1.000
    Si3796   Si       0.59243    0.99731    0.91044    1.000
    Si3797   Si       0.63766    0.91621    0.97412    1.000
    N3798    N        0.67498    0.05851    0.10171    1.000
    Si3799   Si       0.67331    0.10144    0.09024    1.000
    N3800    N        0.68839    0.06578    0.01100    1.000
    N3801    N        0.64428    0.10854    0.05736    1.000
    Si3802   Si       0.68683    0.02316    0.00574    1.000
    N3803    N        0.67992    0.16487    0.05492    1.000
    N3804    N        0.67576    0.21709    0.01453    1.000
    Si3805   Si       0.67172    0.20767    0.05690    1.000
    Si3806   Si       0.64746    0.14450    0.03246    1.000
    Si3807   Si       0.65306    0.24752    0.99763    1.000
    N3808    N        0.66817    0.04077    0.17477    1.000
    N3809    N        0.66625    0.09957    0.20521    1.000
    N3810    N        0.66922    0.13385    0.12026    1.000
    N3811    N        0.63478    0.14420    0.23045    1.000
    N3812    N        0.67458    0.23832    0.16642    1.000
    Si3813   Si       0.65004    0.20330    0.17696    1.000
    Si3814   Si       0.67763    0.14109    0.21668    1.000
    N3815    N        0.67379    0.16848    0.18516    1.000
    N3816    N        0.63672    0.01823    0.32138    1.000
    Si3817   Si       0.69495    0.13274    0.34777    1.000
    N3818    N        0.65450    0.14602    0.34914    1.000
    N3819    N        0.65171    0.19322    0.27280    1.000
    N3820    N        0.66141    0.23644    0.32168    1.000
    Si3821   Si       0.63751    0.23347    0.28548    1.000
    Si3822   Si       0.69285    0.17817    0.28032    1.000
    Si3823   Si       0.63629    0.23676    0.35729    1.000
    N3824    N        0.65981    0.10466    0.41077    1.000
    N3825    N        0.67341    0.04796    0.39577    1.000
    Si3826   Si       0.69603    0.08617    0.39335    1.000
    Si3827   Si       0.67903    0.14449    0.42086    1.000
    N3828    N        0.66154    0.23699    0.39249    1.000
    Si3829   Si       0.68674    0.25122    0.46765    1.000
    N3830    N        0.67676    0.21064    0.45870    1.000
    Si3831   Si       0.68337    0.17784    0.48774    1.000
    N3832    N        0.64531    0.17121    0.41485    1.000
    Si3833   Si       0.64639    0.21204    0.42565    1.000
    N3834    N        0.68775    0.13980    0.46358    1.000
    Si3835   Si       0.68182    0.06686    0.53600    1.000
    Si3836   Si       0.66941    0.12429    0.58602    1.000
    N3837    N        0.68288    0.02286    0.54419    1.000
    N3838    N        0.68992    0.08951    0.57397    1.000
    N3839    N        0.63918    0.07116    0.53483    1.000
    N3840    N        0.63926    0.02153    0.49473    1.000
    N3841    N        0.64643    0.16882    0.50893    1.000
    Si3842   Si       0.65543    0.24794    0.57706    1.000
    N3843    N        0.68587    0.16472    0.57371    1.000
    Si3844   Si       0.64559    0.17249    0.55245    1.000
    Si3845   Si       0.68438    0.18523    0.61199    1.000
    N3846    N        0.68679    0.22543    0.59648    1.000
    N3847    N        0.63441    0.21474    0.55760    1.000
    N3848    N        0.68257    0.06991    0.66652    1.000
    Si3849   Si       0.66765    0.04085    0.63668    1.000
    Si3850   Si       0.67578    0.06035    0.70994    1.000
    N3851    N        0.67913    0.08724    0.74436    1.000
    Si3852   Si       0.68019    0.12836    0.73203    1.000
    N3853    N        0.68944    0.01978    0.71847    1.000
    N3854    N        0.67584    0.13374    0.62668    1.000
    N3855    N        0.65730    0.00633    0.66381    1.000
    N3856    N        0.67816    0.13275    0.68928    1.000
    Si3857   Si       0.68180    0.25171    0.70216    1.000
    Si3858   Si       0.65131    0.14828    0.65879    1.000
    N3859    N        0.65276    0.18873    0.64004    1.000
    N3860    N        0.68927    0.21852    0.73268    1.000
    N3861    N        0.64469    0.23939    0.68370    1.000
    Si3862   Si       0.63516    0.22722    0.64340    1.000
    N3863    N        0.67570    0.03472    0.79493    1.000
    Si3864   Si       0.66227    0.07338    0.78120    1.000
    N3865    N        0.67579    0.09189    0.81887    1.000
    N3866    N        0.64922    0.04946    0.85480    1.000
    Si3867   Si       0.68999    0.04937    0.83423    1.000
    Si3868   Si       0.64754    0.09498    0.85386    1.000
    Si3869   Si       0.66968    0.22118    0.77185    1.000
    N3870    N        0.64460    0.14147    0.75227    1.000
    N3871    N        0.63915    0.17511    0.87082    1.000
    N3872    N        0.63801    0.24981    0.84467    1.000
    N3873    N        0.69400    0.22782    0.85692    1.000
    N3874    N        0.68704    0.01525    0.96158    1.000
    N3875    N        0.64961    0.07938    0.94794    1.000
    Si3876   Si       0.65397    0.08821    0.99299    1.000
    Si3877   Si       0.68456    0.08733    0.92421    1.000
    N3878    N        0.66804    0.10867    0.88869    1.000
    N3879    N        0.66408    0.13084    0.99330    1.000
    N3880    N        0.63828    0.23524    0.91289    1.000
    Si3881   Si       0.65038    0.21742    0.87255    1.000
    Si3882   Si       0.67554    0.15227    0.87879    1.000
    Si3883   Si       0.67035    0.31085    0.03258    1.000
    Si3884   Si       0.66666    0.31876    0.10551    1.000
    N3885    N        0.64902    0.27449    0.03143    1.000
    N3886    N        0.69226    0.31370    0.07193    1.000
    N3887    N        0.66912    0.36124    0.11753    1.000
    N3888    N        0.63983    0.34058    0.02557    1.000
    Si3889   Si       0.67986    0.39748    0.09319    1.000
    Si3890   Si       0.67077    0.47496    0.09108    1.000
    N3891    N        0.67715    0.43768    0.11145    1.000
    N3892    N        0.64886    0.39945    0.06357    1.000
    Si3893   Si       0.64956    0.43570    0.03928    1.000
    N3894    N        0.69165    0.44049    0.02381    1.000
    N3895    N        0.63784    0.47042    0.06488    1.000
    Si3896   Si       0.67513    0.35911    0.16258    1.000
    Si3897   Si       0.66793    0.28028    0.17710    1.000
    N3898    N        0.68592    0.30327    0.14441    1.000
    N3899    N        0.68885    0.29540    0.21238    1.000
    N3900    N        0.64155    0.34549    0.18306    1.000
    N3901    N        0.64720    0.45319    0.22930    1.000
    Si3902   Si       0.69066    0.50544    0.15205    1.000
    N3903    N        0.65439    0.50323    0.12410    1.000
    N3904    N        0.68327    0.46830    0.17186    1.000
    Si3905   Si       0.65331    0.49554    0.23961    1.000
    Si3906   Si       0.66051    0.43881    0.15153    1.000
    Si3907   Si       0.69076    0.45563    0.21192    1.000
    N3908    N        0.66324    0.40035    0.17233    1.000
    Si3909   Si       0.66568    0.33208    0.34864    1.000
    N3910    N        0.65564    0.33420    0.26498    1.000
    N3911    N        0.68219    0.29249    0.35791    1.000
    Si3912   Si       0.68492    0.36328    0.27984    1.000
    Si3913   Si       0.67074    0.29755    0.25208    1.000
    N3914    N        0.64243    0.26393    0.25305    1.000
    Si3915   Si       0.69095    0.26998    0.32009    1.000
    N3916    N        0.69236    0.34965    0.32073    1.000
    N3917    N        0.68370    0.41447    0.34492    1.000
    N3918    N        0.66456    0.47663    0.32047    1.000
    N3919    N        0.66297    0.39918    0.27579    1.000
    Si3920   Si       0.66940    0.43024    0.30603    1.000
    Si3921   Si       0.67438    0.27795    0.39956    1.000
    N3922    N        0.67573    0.33933    0.44868    1.000
    N3923    N        0.65582    0.35523    0.38369    1.000
    N3924    N        0.65124    0.27088    0.48192    1.000
    Si3925   Si       0.64101    0.33440    0.42470    1.000
    Si3926   Si       0.67694    0.35365    0.49343    1.000
    N3927    N        0.64520    0.42186    0.40502    1.000
    Si3928   Si       0.65112    0.46042    0.42589    1.000
    Si3929   Si       0.67422    0.39615    0.38238    1.000
    N3930    N        0.63608    0.44988    0.46481    1.000
    N3931    N        0.67004    0.27971    0.55102    1.000
    N3932    N        0.66857    0.34976    0.53747    1.000
    Si3933   Si       0.64363    0.31549    0.55344    1.000
    N3934    N        0.66878    0.49151    0.51203    1.000
    Si3935   Si       0.67849    0.43867    0.55778    1.000
    N3936    N        0.68421    0.40496    0.58536    1.000
    Si3937   Si       0.66474    0.48555    0.61549    1.000
    N3938    N        0.63913    0.43900    0.53831    1.000
    N3939    N        0.69419    0.47158    0.58395    1.000
    Si3940   Si       0.63329    0.46518    0.50377    1.000
    N3941    N        0.68267    0.36122    0.71821    1.000
    N3942    N        0.64699    0.36255    0.65956    1.000
    Si3943   Si       0.68423    0.34811    0.64139    1.000
    N3944    N        0.68622    0.28865    0.72453    1.000
    N3945    N        0.68749    0.48032    0.70484    1.000
    Si3946   Si       0.66681    0.49805    0.74103    1.000
    N3947    N        0.67839    0.45008    0.64154    1.000
    Si3948   Si       0.66879    0.38729    0.68671    1.000
    N3949    N        0.64662    0.42290    0.69615    1.000
    Si3950   Si       0.65912    0.46143    0.67775    1.000
    N3951    N        0.65617    0.32685    0.77672    1.000
    N3952    N        0.65729    0.36999    0.83263    1.000
    Si3953   Si       0.65477    0.32650    0.82201    1.000
    Si3954   Si       0.66227    0.36455    0.75640    1.000
    Si3955   Si       0.68744    0.29794    0.76713    1.000
    Si3956   Si       0.67860    0.26314    0.83237    1.000
    N3957    N        0.69119    0.30629    0.83204    1.000
    N3958    N        0.67516    0.25959    0.79011    1.000
    N3959    N        0.67953    0.39683    0.77791    1.000
    N3960    N        0.65228    0.45451    0.75896    1.000
    Si3961   Si       0.65540    0.46595    0.86247    1.000
    N3962    N        0.68896    0.48062    0.84099    1.000
    Si3963   Si       0.69193    0.39567    0.82230    1.000
    N3964    N        0.69778    0.41338    0.86538    1.000
    N3965    N        0.67059    0.26625    0.96279    1.000
    Si3966   Si       0.65517    0.27336    0.92223    1.000
    N3967    N        0.68496    0.34149    0.93480    1.000
    Si3968   Si       0.64144    0.34885    0.92393    1.000
    N3969    N        0.69252    0.27874    0.89907    1.000
    N3970    N        0.64485    0.38347    0.89785    1.000
    N3971    N        0.68223    0.47940    0.96351    1.000
    Si3972   Si       0.65747    0.48606    0.92962    1.000
    N3973    N        0.65863    0.45168    0.90307    1.000
    Si3974   Si       0.67536    0.41102    0.90889    1.000
    Si3975   Si       0.67508    0.44245    0.98236    1.000
    N3976    N        0.66588    0.40891    0.95527    1.000
    N3977    N        0.66017    0.60174    0.03028    1.000
    Si3978   Si       0.64787    0.54321    0.10322    1.000
    N3979    N        0.68922    0.55721    0.10122    1.000
    Si3980   Si       0.67691    0.62960    0.05852    1.000
    Si3981   Si       0.67992    0.74063    0.05995    1.000
    N3982    N        0.68229    0.72094    0.02091    1.000
    N3983    N        0.64225    0.65553    0.07187    1.000
    N3984    N        0.63939    0.74051    0.07289    1.000
    N3985    N        0.67855    0.61035    0.15242    1.000
    Si3986   Si       0.66857    0.56005    0.19998    1.000
    N3987    N        0.68094    0.58049    0.23507    1.000
    N3988    N        0.64460    0.52316    0.20990    1.000
    Si3989   Si       0.63490    0.60421    0.14842    1.000
    Si3990   Si       0.66608    0.72893    0.19703    1.000
    Si3991   Si       0.67022    0.71891    0.12849    1.000
    N3992    N        0.68391    0.70432    0.16560    1.000
    N3993    N        0.66667    0.71568    0.23803    1.000
    N3994    N        0.68160    0.64466    0.22009    1.000
    N3995    N        0.65823    0.54997    0.33879    1.000
    N3996    N        0.66570    0.61134    0.29083    1.000
    Si3997   Si       0.68243    0.51537    0.33342    1.000
    Si3998   Si       0.64224    0.58143    0.31520    1.000
    N3999    N        0.63859    0.60703    0.35405    1.000
    Si4000   Si       0.65924    0.61726    0.24712    1.000
    N4001    N        0.67635    0.65948    0.33861    1.000
    Si4002   Si       0.66644    0.68947    0.30539    1.000
    N4003    N        0.68218    0.73070    0.30764    1.000
    Si4004   Si       0.67203    0.74798    0.27044    1.000
    Si4005   Si       0.66256    0.57695    0.37186    1.000
    N4006    N        0.64506    0.57076    0.41163    1.000
    Si4007   Si       0.67593    0.57340    0.44651    1.000
    N4008    N        0.65275    0.56010    0.48267    1.000
    Si4009   Si       0.69228    0.64826    0.43442    1.000
    N4010    N        0.68421    0.70473    0.39150    1.000
    Si4011   Si       0.66303    0.67028    0.38043    1.000
    N4012    N        0.65525    0.64156    0.41099    1.000
    Si4013   Si       0.67847    0.74911    0.40105    1.000
    Si4014   Si       0.66853    0.55498    0.58249    1.000
    N4015    N        0.65411    0.59122    0.60167    1.000
    Si4016   Si       0.64755    0.52991    0.51367    1.000
    N4017    N        0.67967    0.52593    0.61344    1.000
    Si4018   Si       0.65930    0.63078    0.58258    1.000
    N4019    N        0.63688    0.54585    0.55352    1.000
    N4020    N        0.63572    0.62291    0.54724    1.000
    N4021    N        0.68379    0.66722    0.51971    1.000
    Si4022   Si       0.67343    0.70927    0.53138    1.000
    N4023    N        0.65020    0.72766    0.60953    1.000
    N4024    N        0.64295    0.66218    0.60655    1.000
    Si4025   Si       0.64140    0.65721    0.52115    1.000
    N4026    N        0.67659    0.73816    0.50002    1.000
    N4027    N        0.68089    0.53953    0.73062    1.000
    N4028    N        0.65428    0.56537    0.67263    1.000
    Si4029   Si       0.65063    0.59760    0.64238    1.000
    N4030    N        0.67917    0.62750    0.65867    1.000
    Si4031   Si       0.69144    0.55491    0.69168    1.000
    N4032    N        0.63467    0.61628    0.71985    1.000
    Si4033   Si       0.66663    0.75611    0.71080    1.000
    Si4034   Si       0.66619    0.66637    0.64229    1.000
    N4035    N        0.64207    0.67108    0.67766    1.000
    N4036    N        0.64850    0.71748    0.72528    1.000
    Si4037   Si       0.66373    0.64165    0.69966    1.000
    N4038    N        0.68932    0.66167    0.73041    1.000
    Si4039   Si       0.63557    0.75500    0.63889    1.000
    N4040    N        0.65951    0.56446    0.84947    1.000
    N4041    N        0.66520    0.52782    0.79453    1.000
    Si4042   Si       0.67910    0.60284    0.85811    1.000
    N4043    N        0.64236    0.58545    0.78402    1.000
    Si4044   Si       0.67684    0.56345    0.76634    1.000
    Si4045   Si       0.63772    0.55498    0.81343    1.000
    N4046    N        0.68176    0.71125    0.78806    1.000
    N4047    N        0.66247    0.64525    0.85644    1.000
    Si4048   Si       0.65093    0.72854    0.81308    1.000
    Si4049   Si       0.66470    0.68773    0.75508    1.000
    N4050    N        0.66823    0.75254    0.84446    1.000
    N4051    N        0.63979    0.65955    0.77707    1.000
    N4052    N        0.67739    0.59233    0.90121    1.000
    N4053    N        0.67871    0.61518    0.96517    1.000
    Si4054   Si       0.65684    0.55389    0.89363    1.000
    N4055    N        0.67798    0.51810    0.90606    1.000
    N4056    N        0.67006    0.54374    0.97985    1.000
    Si4057   Si       0.68011    0.58435    0.99650    1.000
    N4058    N        0.67380    0.71160    0.90226    1.000
    Si4059   Si       0.66676    0.67011    0.89410    1.000
    Si4060   Si       0.65212    0.71787    0.98778    1.000
    Si4061   Si       0.68102    0.75085    0.88625    1.000
    N4062    N        0.67488    0.68549    0.96968    1.000
    N4063    N        0.64772    0.75335    0.96320    1.000
    Si4064   Si       0.64949    0.64840    0.96518    1.000
    Si4065   Si       0.67972    0.81802    0.06392    1.000
    N4066    N        0.65044    0.81909    0.03016    1.000
    N4067    N        0.64766    0.81046    0.09555    1.000
    N4068    N        0.66043    0.90516    0.06645    1.000
    Si4069   Si       0.63867    0.92996    0.09391    1.000
    N4070    N        0.64678    0.00239    0.00851    1.000
    Si4071   Si       0.63621    0.89017    0.03304    1.000
    N4072    N        0.65325    0.75753    0.13545    1.000
    Si4073   Si       0.66293    0.79083    0.16059    1.000
    Si4074   Si       0.67313    0.84578    0.19653    1.000
    N4075    N        0.68247    0.76803    0.19371    1.000
    N4076    N        0.64598    0.86654    0.22436    1.000
    N4077    N        0.64036    0.82310    0.17674    1.000
    N4078    N        0.68521    0.88118    0.17248    1.000
    Si4079   Si       0.65461    0.91238    0.16728    1.000
    N4080    N        0.66407    0.93288    0.12857    1.000
    Si4081   Si       0.65761    0.97467    0.22173    1.000
    N4082    N        0.69409    0.98686    0.20540    1.000
    N4083    N        0.64100    0.93531    0.20373    1.000
    N4084    N        0.67164    0.85101    0.29124    1.000
    Si4085   Si       0.65926    0.84335    0.33187    1.000
    N4086    N        0.69276    0.84135    0.35828    1.000
    Si4087   Si       0.63811    0.85714    0.26617    1.000
    N4088    N        0.63901    0.88054    0.33938    1.000
    N4089    N        0.63778    0.80550    0.32881    1.000
    Si4090   Si       0.64223    0.91239    0.30803    1.000
    N4091    N        0.68335    0.91670    0.29159    1.000
    N4092    N        0.66066    0.97368    0.26290    1.000
    Si4093   Si       0.63381    0.98109    0.35841    1.000
    Si4094   Si       0.67750    0.83436    0.48237    1.000
    N4095    N        0.68429    0.86691    0.45179    1.000
    N4096    N        0.64553    0.80686    0.47377    1.000
    N4097    N        0.66158    0.99607    0.43693    1.000
    Si4098   Si       0.68506    0.00916    0.40235    1.000
    N4099    N        0.67655    0.98202    0.36951    1.000
    Si4100   Si       0.66773    0.90599    0.44422    1.000
    N4101    N        0.63898    0.91437    0.47506    1.000
    N4102    N        0.63351    0.89779    0.41598    1.000
    N4103    N        0.65247    0.81821    0.59497    1.000
    Si4104   Si       0.67318    0.80924    0.55782    1.000
    N4105    N        0.67639    0.83799    0.52459    1.000
    N4106    N        0.64274    0.77924    0.54698    1.000
    Si4107   Si       0.67734    0.87572    0.54902    1.000
    Si4108   Si       0.64548    0.77119    0.50263    1.000
    N4109    N        0.66861    0.93378    0.60938    1.000
    Si4110   Si       0.66670    0.99572    0.51553    1.000
    Si4111   Si       0.64774    0.92109    0.51672    1.000
    N4112    N        0.64773    0.99889    0.60263    1.000
    N4113    N        0.68856    0.91218    0.52575    1.000
    Si4114   Si       0.68868    0.00184    0.58235    1.000
    N4115    N        0.64092    0.96200    0.52755    1.000
    Si4116   Si       0.64673    0.84953    0.62557    1.000
    N4117    N        0.67269    0.85617    0.71588    1.000
    N4118    N        0.64597    0.79189    0.72741    1.000
    N4119    N        0.67430    0.87805    0.64524    1.000
    Si4120   Si       0.63970    0.82920    0.70740    1.000
    N4121    N        0.67208    0.76056    0.66759    1.000
    N4122    N        0.66416    0.92158    0.72230    1.000
    N4123    N        0.68755    0.95263    0.66484    1.000
    Si4124   Si       0.69489    0.99002    0.68440    1.000
    Si4125   Si       0.65285    0.96710    0.63778    1.000
    N4126    N        0.67607    0.78456    0.78594    1.000
    Si4127   Si       0.67248    0.79218    0.82830    1.000
    N4128    N        0.67766    0.85703    0.78361    1.000
    Si4129   Si       0.67345    0.88604    0.74798    1.000
    Si4130   Si       0.65777    0.88370    0.81233    1.000
    N4131    N        0.67772    0.88895    0.84965    1.000
    N4132    N        0.66457    0.97365    0.76674    1.000
    N4133    N        0.65976    0.97685    0.83600    1.000
    Si4134   Si       0.65055    0.99838    0.80050    1.000
    N4135    N        0.64328    0.91006    0.77814    1.000
    Si4136   Si       0.69890    0.97827    0.85633    1.000
    N4137    N        0.65657    0.78670    0.90287    1.000
    Si4138   Si       0.66071    0.79219    0.94695    1.000
    N4139    N        0.69121    0.81288    0.97025    1.000
    N4140    N        0.65994    0.87947    0.99610    1.000
    Si4141   Si       0.66025    0.83620    0.99323    1.000
    Si4142   Si       0.65652    0.89215    0.88671    1.000
    N4143    N        0.69152    0.98087    0.89952    1.000
    Si4144   Si       0.64844    0.99685    0.96474    1.000
    Si4145   Si       0.68644    0.95018    0.92930    1.000
    N4146    N        0.65472    0.95306    0.95821    1.000
    N4147    N        0.68913    0.90910    0.91284    1.000
    N4148    N        0.73556    0.02687    0.08710    1.000
    Si4149   Si       0.72117    0.08720    0.03209    1.000
    N4150    N        0.70989    0.10913    0.07098    1.000
    N4151    N        0.72755    0.12555    0.01341    1.000
    Si4152   Si       0.70764    0.03506    0.11635    1.000
    Si4153   Si       0.72273    0.14766    0.05279    1.000
    N4154    N        0.73857    0.18851    0.03794    1.000
    Si4155   Si       0.73936    0.23899    0.08681    1.000
    Si4156   Si       0.71740    0.20761    0.00498    1.000
    N4157    N        0.69790    0.22591    0.08698    1.000
    N4158    N        0.73210    0.24757    0.99607    1.000
    Si4159   Si       0.70839    0.01643    0.17554    1.000
    N4160    N        0.72472    0.05587    0.15193    1.000
    N4161    N        0.71518    0.11967    0.17195    1.000
    N4162    N        0.71722    0.05470    0.21631    1.000
    Si4163   Si       0.69769    0.07699    0.18289    1.000
    N4164    N        0.73368    0.25384    0.12948    1.000
    Si4165   Si       0.69828    0.22656    0.13213    1.000
    N4166    N        0.71543    0.18843    0.13923    1.000
    Si4167   Si       0.69496    0.15033    0.14962    1.000
    N4168    N        0.70734    0.15271    0.24697    1.000
    N4169    N        0.71210    0.05658    0.29256    1.000
    Si4170   Si       0.72775    0.05818    0.33344    1.000
    N4171    N        0.70635    0.09108    0.35088    1.000
    Si4172   Si       0.73346    0.05258    0.25635    1.000
    N4173    N        0.73273    0.02461    0.36491    1.000
    N4174    N        0.72779    0.20779    0.27381    1.000
    N4175    N        0.71063    0.15663    0.31596    1.000
    Si4176   Si       0.75084    0.23279    0.30158    1.000
    Si4177   Si       0.75390    0.16496    0.31635    1.000
    Si4178   Si       0.75235    0.17806    0.24743    1.000
    N4179    N        0.72086    0.08496    0.42857    1.000
    Si4180   Si       0.71228    0.10442    0.46878    1.000
    Si4181   Si       0.75472    0.14780    0.38711    1.000
    N4182    N        0.75400    0.25514    0.39043    1.000
    N4183    N        0.71051    0.14465    0.38921    1.000
    Si4184   Si       0.74604    0.21192    0.49671    1.000
    Si4185   Si       0.72268    0.06831    0.59008    1.000
    N4186    N        0.70966    0.08401    0.50679    1.000
    N4187    N        0.70402    0.03204    0.60824    1.000
    Si4188   Si       0.75261    0.08611    0.51395    1.000
    N4189    N        0.71817    0.18236    0.51611    1.000
    Si4190   Si       0.72729    0.17215    0.55807    1.000
    Si4191   Si       0.72840    0.22868    0.60140    1.000
    N4192    N        0.71409    0.24801    0.50023    1.000
    N4193    N        0.74709    0.14439    0.58736    1.000
    N4194    N        0.74821    0.21109    0.56906    1.000
    Si4195   Si       0.70074    0.10962    0.65933    1.000
    N4196    N        0.74204    0.07611    0.62662    1.000
    N4197    N        0.74284    0.09167    0.70357    1.000
    Si4198   Si       0.74765    0.03365    0.63601    1.000
    Si4199   Si       0.74372    0.14016    0.70338    1.000
    N4200    N        0.73999    0.13272    0.65956    1.000
    N4201    N        0.71745    0.14908    0.74262    1.000
    N4202    N        0.71512    0.24986    0.67480    1.000
    N4203    N        0.72705    0.19482    0.63449    1.000
    Si4204   Si       0.74120    0.21638    0.67091    1.000
    N4205    N        0.74420    0.18873    0.70499    1.000
    N4206    N        0.73341    0.08048    0.84545    1.000
    Si4207   Si       0.71018    0.11480    0.82711    1.000
    N4208    N        0.73958    0.12000    0.79648    1.000
    N4209    N        0.71548    0.01801    0.84814    1.000
    Si4210   Si       0.71257    0.19352    0.83120    1.000
    N4211    N        0.70059    0.15358    0.84283    1.000
    Si4212   Si       0.71997    0.19195    0.74702    1.000
    N4213    N        0.69984    0.19666    0.78978    1.000
    N4214    N        0.75342    0.19988    0.84164    1.000
    N4215    N        0.71314    0.05619    0.90951    1.000
    N4216    N        0.71378    0.11224    0.94681    1.000
    Si4217   Si       0.74764    0.06706    0.88455    1.000
    Si4218   Si       0.70957    0.01407    0.92506    1.000
    N4219    N        0.71955    0.17984    0.97232    1.000
    N4220    N        0.69538    0.17507    0.91204    1.000
    Si4221   Si       0.72131    0.24926    0.88535    1.000
    Si4222   Si       0.70550    0.14063    0.98056    1.000
    N4223    N        0.74162    0.22478    0.91571    1.000
    Si4224   Si       0.73176    0.18451    0.93149    1.000
    Si4225   Si       0.73493    0.31388    0.06914    1.000
    N4226    N        0.74540    0.27207    0.06065    1.000
    N4227    N        0.70464    0.31164    0.00299    1.000
    Si4228   Si       0.73591    0.34326    0.00301    1.000
    N4229    N        0.75332    0.31867    0.10806    1.000
    N4230    N        0.70582    0.49213    0.07116    1.000
    N4231    N        0.72066    0.39998    0.07472    1.000
    Si4232   Si       0.72021    0.47406    0.03488    1.000
    Si4233   Si       0.72247    0.40968    0.03098    1.000
    N4234    N        0.73254    0.50374    0.00764    1.000
    Si4235   Si       0.75193    0.41343    0.10130    1.000
    N4236    N        0.74992    0.31648    0.24002    1.000
    N4237    N        0.71490    0.35417    0.18224    1.000
    Si4238   Si       0.72926    0.29766    0.13784    1.000
    Si4239   Si       0.72600    0.31604    0.20382    1.000
    N4240    N        0.75188    0.29255    0.17421    1.000
    Si4241   Si       0.73372    0.39434    0.18465    1.000
    N4242    N        0.71474    0.41902    0.21513    1.000
    N4243    N        0.69761    0.48384    0.24270    1.000
    N4244    N        0.74098    0.41136    0.14459    1.000
    Si4245   Si       0.73560    0.34994    0.32846    1.000
    N4246    N        0.72537    0.37429    0.26678    1.000
    Si4247   Si       0.74404    0.29376    0.27959    1.000
    N4248    N        0.70026    0.28539    0.28008    1.000
    N4249    N        0.73436    0.26489    0.32800    1.000
    N4250    N        0.74085    0.32841    0.36743    1.000
    Si4251   Si       0.75354    0.28614    0.35937    1.000
    Si4252   Si       0.71554    0.48168    0.28205    1.000
    N4253    N        0.73570    0.45792    0.35181    1.000
    Si4254   Si       0.72424    0.42107    0.33117    1.000
    N4255    N        0.71234    0.43748    0.29140    1.000
    Si4256   Si       0.72784    0.41617    0.25557    1.000
    N4257    N        0.75040    0.38832    0.33961    1.000
    N4258    N        0.70075    0.27791    0.43445    1.000
    Si4259   Si       0.71565    0.31619    0.45558    1.000
    N4260    N        0.74119    0.34905    0.44002    1.000
    Si4261   Si       0.74394    0.36196    0.39592    1.000
    N4262    N        0.75537    0.29092    0.45820    1.000
    Si4263   Si       0.74049    0.25935    0.43078    1.000
    N4264    N        0.74796    0.42370    0.45274    1.000
    N4265    N        0.72789    0.48624    0.47614    1.000
    Si4266   Si       0.73213    0.46241    0.43998    1.000
    N4267    N        0.70658    0.38588    0.48766    1.000
    N4268    N        0.71174    0.39078    0.40439    1.000
    N4269    N        0.69410    0.46251    0.41912    1.000
    Si4270   Si       0.71479    0.47677    0.38368    1.000
    Si4271   Si       0.72347    0.38950    0.44581    1.000
    N4272    N        0.73228    0.27092    0.60766    1.000
    N4273    N        0.73319    0.36989    0.54530    1.000
    Si4274   Si       0.74234    0.33563    0.52223    1.000
    N4275    N        0.74259    0.29949    0.54531    1.000
    Si4276   Si       0.70602    0.28280    0.52591    1.000
    N4277    N        0.70925    0.32067    0.49843    1.000
    N4278    N        0.69802    0.34007    0.60168    1.000
    Si4279   Si       0.69479    0.36691    0.56562    1.000
    Si4280   Si       0.73652    0.40419    0.51570    1.000
    Si4281   Si       0.73556    0.48578    0.57963    1.000
    Si4282   Si       0.71036    0.48051    0.51461    1.000
    N4283    N        0.71115    0.43805    0.52930    1.000
    N4284    N        0.74768    0.33312    0.71203    1.000
    Si4285   Si       0.72651    0.28281    0.64909    1.000
    Si4286   Si       0.70557    0.32509    0.70653    1.000
    N4287    N        0.70211    0.31715    0.66250    1.000
    N4288    N        0.72659    0.43335    0.73986    1.000
    Si4289   Si       0.70035    0.41825    0.62356    1.000
    N4290    N        0.70302    0.38592    0.65689    1.000
    Si4291   Si       0.74733    0.39277    0.66320    1.000
    Si4292   Si       0.72357    0.47442    0.72840    1.000
    N4293    N        0.74431    0.41998    0.62926    1.000
    Si4294   Si       0.72699    0.32635    0.82093    1.000
    N4295    N        0.72240    0.31979    0.77635    1.000
    N4296    N        0.72888    0.37023    0.82983    1.000
    N4297    N        0.75566    0.37768    0.76583    1.000
    Si4298   Si       0.72470    0.45249    0.85042    1.000
    N4299    N        0.72198    0.42826    0.81127    1.000
    N4300    N        0.70551    0.48520    0.76775    1.000
    Si4301   Si       0.75355    0.39851    0.80467    1.000
    Si4302   Si       0.69871    0.50516    0.80630    1.000
    Si4303   Si       0.69589    0.43923    0.77126    1.000
    Si4304   Si       0.71325    0.31494    0.91234    1.000
    N4305    N        0.73495    0.29473    0.94414    1.000
    Si4306   Si       0.70971    0.27726    0.97588    1.000
    N4307    N        0.74011    0.33829    0.88775    1.000
    Si4308   Si       0.73150    0.38246    0.87577    1.000
    Si4309   Si       0.69912    0.37786    0.95725    1.000
    N4310    N        0.71572    0.38178    0.99814    1.000
    Si4311   Si       0.74523    0.42839    0.91603    1.000
    N4312    N        0.74998    0.43899    0.95606    1.000
    Si4313   Si       0.71892    0.50311    0.90808    1.000
    N4314    N        0.71711    0.39458    0.92079    1.000
    N4315    N        0.72879    0.46338    0.89599    1.000
    Si4316   Si       0.71934    0.52728    0.09220    1.000
    N4317    N        0.70582    0.62379    0.08948    1.000
    N4318    N        0.72129    0.57960    0.00791    1.000
    Si4319   Si       0.70431    0.59353    0.12175    1.000
    Si4320   Si       0.73933    0.71406    0.09978    1.000
    Si4321   Si       0.73571    0.64489    0.06523    1.000
    N4322    N        0.70540    0.65227    0.03456    1.000
    Si4323   Si       0.70206    0.68520    0.00703    1.000
    N4324    N        0.69635    0.71650    0.09348    1.000
    N4325    N        0.75522    0.67659    0.08529    1.000
    Si4326   Si       0.70095    0.62764    0.18452    1.000
    N4327    N        0.73115    0.60272    0.20276    1.000
    N4328    N        0.74365    0.58278    0.13946    1.000
    Si4329   Si       0.73954    0.54409    0.15733    1.000
    Si4330   Si       0.72298    0.58598    0.24395    1.000
    N4331    N        0.69843    0.54043    0.17554    1.000
    N4332    N        0.73152    0.50902    0.13162    1.000
    Si4333   Si       0.72579    0.69196    0.16991    1.000
    N4334    N        0.73310    0.64980    0.16510    1.000
    Si4335   Si       0.69693    0.68144    0.23854    1.000
    N4336    N        0.72876    0.69775    0.21301    1.000
    N4337    N        0.75263    0.71276    0.14378    1.000
    N4338    N        0.72876    0.61089    0.27854    1.000
    N4339    N        0.70802    0.52112    0.29913    1.000
    Si4340   Si       0.74804    0.53465    0.28773    1.000
    N4341    N        0.74846    0.55103    0.24810    1.000
    N4342    N        0.70486    0.51638    0.37092    1.000
    Si4343   Si       0.70125    0.63464    0.30681    1.000
    N4344    N        0.73752    0.63235    0.33452    1.000
    Si4345   Si       0.71465    0.73975    0.33653    1.000
    N4346    N        0.73592    0.70435    0.35088    1.000
    N4347    N        0.69965    0.67242    0.28113    1.000
    Si4348   Si       0.73342    0.61927    0.37649    1.000
    N4349    N        0.70693    0.58445    0.37917    1.000
    Si4350   Si       0.72154    0.54711    0.39680    1.000
    Si4351   Si       0.73162    0.59793    0.48099    1.000
    Si4352   Si       0.73590    0.52780    0.46835    1.000
    N4353    N        0.70890    0.54416    0.43743    1.000
    N4354    N        0.69721    0.60988    0.45441    1.000
    N4355    N        0.70149    0.75586    0.43668    1.000
    Si4356   Si       0.70143    0.72381    0.46694    1.000
    N4357    N        0.72080    0.65199    0.40104    1.000
    N4358    N        0.74077    0.72548    0.48234    1.000
    Si4359   Si       0.72700    0.69639    0.39364    1.000
    N4360    N        0.69261    0.68551    0.45412    1.000
    Si4361   Si       0.72423    0.59896    0.58987    1.000
    Si4362   Si       0.73484    0.54672    0.53970    1.000
    N4363    N        0.70639    0.56779    0.56434    1.000
    N4364    N        0.73810    0.62559    0.51389    1.000
    N4365    N        0.74667    0.51125    0.61241    1.000
    N4366    N        0.72844    0.55738    0.49846    1.000
    N4367    N        0.73291    0.50431    0.54157    1.000
    N4368    N        0.70278    0.63583    0.57792    1.000
    Si4369   Si       0.71940    0.65362    0.54205    1.000
    N4370    N        0.69825    0.71684    0.56374    1.000
    Si4371   Si       0.69385    0.72443    0.60546    1.000
    N4372    N        0.72081    0.58130    0.62874    1.000
    Si4373   Si       0.71882    0.53782    0.63111    1.000
    Si4374   Si       0.73837    0.59049    0.73878    1.000
    N4375    N        0.72433    0.53311    0.67469    1.000
    Si4376   Si       0.71786    0.60920    0.66151    1.000
    N4377    N        0.71307    0.59284    0.70248    1.000
    Si4378   Si       0.73977    0.73370    0.70698    1.000
    Si4379   Si       0.73357    0.66521    0.72998    1.000
    N4380    N        0.74821    0.63847    0.65388    1.000
    N4381    N        0.73846    0.69478    0.69373    1.000
    N4382    N        0.69981    0.69292    0.63633    1.000
    Si4383   Si       0.73875    0.68216    0.65183    1.000
    N4384    N        0.70770    0.75497    0.72580    1.000
    N4385    N        0.71283    0.58411    0.77267    1.000
    N4386    N        0.73108    0.53376    0.81618    1.000
    N4387    N        0.72179    0.59737    0.84564    1.000
    Si4388   Si       0.73494    0.57606    0.80900    1.000
    Si4389   Si       0.72445    0.71538    0.79413    1.000
    N4390    N        0.74497    0.69287    0.76259    1.000
    N4391    N        0.74417    0.70018    0.82952    1.000
    N4392    N        0.74221    0.75531    0.78839    1.000
    Si4393   Si       0.75251    0.60805    0.87503    1.000
    N4394    N        0.73199    0.52649    0.94411    1.000
    N4395    N        0.73949    0.59601    0.91588    1.000
    Si4396   Si       0.70538    0.51833    0.97771    1.000
    Si4397   Si       0.70369    0.61553    0.92824    1.000
    N4398    N        0.74822    0.52824    0.88352    1.000
    N4399    N        0.74048    0.69144    0.98891    1.000
    Si4400   Si       0.74724    0.73176    0.97811    1.000
    N4401    N        0.72187    0.73464    0.94168    1.000
    Si4402   Si       0.69947    0.69827    0.93520    1.000
    N4403    N        0.70258    0.65716    0.91753    1.000
    Si4404   Si       0.74006    0.77432    0.05239    1.000
    Si4405   Si       0.74000    0.85178    0.05910    1.000
    N4406    N        0.71248    0.83403    0.08898    1.000
    N4407    N        0.71176    0.85401    0.02779    1.000
    N4408    N        0.69841    0.77799    0.05636    1.000
    N4409    N        0.75105    0.75895    0.01218    1.000
    Si4410   Si       0.73114    0.98846    0.06440    1.000
    N4411    N        0.73845    0.89747    0.06892    1.000
    N4412    N        0.71589    0.99459    0.02351    1.000
    N4413    N        0.70856    0.92375    0.01681    1.000
    N4414    N        0.70565    0.95815    0.08096    1.000
    Si4415   Si       0.70307    0.92025    0.05923    1.000
    Si4416   Si       0.72425    0.95897    0.99973    1.000
    N4417    N        0.70060    0.81447    0.15411    1.000
    Si4418   Si       0.73238    0.82876    0.12798    1.000
    N4419    N        0.70708    0.82626    0.21945    1.000
    Si4420   Si       0.71581    0.78401    0.21372    1.000
    Si4421   Si       0.74661    0.83829    0.23739    1.000
    N4422    N        0.75071    0.86740    0.14005    1.000
    N4423    N        0.75382    0.76469    0.19927    1.000
    Si4424   Si       0.70039    0.95527    0.12369    1.000
    N4425    N        0.75074    0.00157    0.19030    1.000
    Si4426   Si       0.73288    0.98464    0.22538    1.000
    N4427    N        0.70280    0.99689    0.13597    1.000
    N4428    N        0.73073    0.92849    0.14019    1.000
    Si4429   Si       0.75022    0.90985    0.24282    1.000
    N4430    N        0.74209    0.89874    0.20200    1.000
    Si4431   Si       0.72744    0.89273    0.16364    1.000
    Si4432   Si       0.73203    0.86320    0.36202    1.000
    N4433    N        0.70538    0.76844    0.25571    1.000
    N4434    N        0.73667    0.87281    0.26159    1.000
    Si4435   Si       0.74528    0.76749    0.27394    1.000
    N4436    N        0.74411    0.76513    0.31703    1.000
    N4437    N        0.70320    0.76530    0.37029    1.000
    N4438    N        0.75030    0.82419    0.35584    1.000
    Si4439   Si       0.70558    0.87859    0.29268    1.000
    N4440    N        0.73270    0.88645    0.32699    1.000
    Si4441   Si       0.71763    0.98067    0.35412    1.000
    N4442    N        0.71541    0.97741    0.31095    1.000
    Si4443   Si       0.69608    0.95548    0.27968    1.000
    N4444    N        0.73821    0.94581    0.36811    1.000
    N4445    N        0.74762    0.00955    0.25836    1.000
    N4446    N        0.73081    0.94954    0.25090    1.000
    Si4447   Si       0.71550    0.80660    0.37594    1.000
    Si4448   Si       0.72677    0.85860    0.43617    1.000
    N4449    N        0.72172    0.81890    0.41624    1.000
    N4450    N        0.71315    0.80939    0.47957    1.000
    Si4451   Si       0.72979    0.78773    0.44518    1.000
    N4452    N        0.73337    0.88422    0.40047    1.000
    Si4453   Si       0.69809    0.97726    0.45360    1.000
    N4454    N        0.69969    0.93577    0.43622    1.000
    Si4455   Si       0.73391    0.92889    0.41000    1.000
    N4456    N        0.72274    0.99849    0.42262    1.000
    N4457    N        0.71357    0.79501    0.55267    1.000
    Si4458   Si       0.73995    0.77704    0.58349    1.000
    Si4459   Si       0.73394    0.81100    0.51700    1.000
    Si4460   Si       0.74405    0.84863    0.57577    1.000
    N4461    N        0.70302    0.86381    0.57919    1.000
    N4462    N        0.74911    0.85020    0.53018    1.000
    N4463    N        0.71756    0.75980    0.61491    1.000
    N4464    N        0.71777    0.97143    0.56799    1.000
    Si4465   Si       0.71512    0.94576    0.53024    1.000
    N4466    N        0.70056    0.97420    0.49725    1.000
    N4467    N        0.70567    0.81939    0.66509    1.000
    Si4468   Si       0.71219    0.77834    0.65476    1.000
    N4469    N        0.74886    0.76434    0.67582    1.000
    Si4470   Si       0.69762    0.85869    0.67866    1.000
    N4471    N        0.73043    0.00864    0.66611    1.000
    Si4472   Si       0.69532    0.91775    0.64048    1.000
    N4473    N        0.73698    0.91546    0.63113    1.000
    Si4474   Si       0.70792    0.92778    0.71530    1.000
    N4475    N        0.72379    0.96976    0.71522    1.000
    N4476    N        0.71673    0.89717    0.68581    1.000
    Si4477   Si       0.71425    0.77850    0.76379    1.000
    N4478    N        0.73694    0.81779    0.76776    1.000
    Si4479   Si       0.71632    0.83944    0.79946    1.000
    N4480    N        0.70552    0.81757    0.83452    1.000
    N4481    N        0.73588    0.87699    0.81111    1.000
    Si4482   Si       0.72720    0.81271    0.87105    1.000
    N4483    N        0.71969    0.94335    0.84081    1.000
    N4484    N        0.73301    0.98768    0.77827    1.000
    Si4485   Si       0.74562    0.95994    0.80932    1.000
    Si4486   Si       0.71938    0.90043    0.84474    1.000
    N4487    N        0.71320    0.90554    0.75240    1.000
    Si4488   Si       0.74938    0.89370    0.77385    1.000
    Si4489   Si       0.70031    0.99166    0.74916    1.000
    N4490    N        0.72235    0.76779    0.88304    1.000
    Si4491   Si       0.72416    0.83314    0.95001    1.000
    N4492    N        0.71713    0.83196    0.90925    1.000
    N4493    N        0.72350    0.87574    0.95862    1.000
    N4494    N        0.71978    0.95469    0.95542    1.000
    N4495    N        0.74507    0.88988    0.88004    1.000
    N4496    N        0.75323    0.00156    0.92551    1.000
    Si4497   Si       0.73191    0.89728    0.92061    1.000
    Si4498   Si       0.70513    0.88507    0.99688    1.000
    Si4499   Si       0.76855    0.05311    0.07657    1.000
    Si4500   Si       0.79248    0.07916    0.00860    1.000
    N4501    N        0.77398    0.08265    0.10757    1.000
    Si4502   Si       0.78185    0.12519    0.10480    1.000
    N4503    N        0.80122    0.02391    0.06926    1.000
    N4504    N        0.75902    0.06871    0.03555    1.000
    Si4505   Si       0.77875    0.18696    0.05646    1.000
    N4506    N        0.78960    0.22568    0.03120    1.000
    N4507    N        0.76712    0.20716    0.09515    1.000
    N4508    N        0.76485    0.14647    0.07080    1.000
    Si4509   Si       0.76401    0.25832    0.02307    1.000
    N4510    N        0.77494    0.09381    0.18710    1.000
    N4511    N        0.79390    0.03862    0.15478    1.000
    Si4512   Si       0.79648    0.08992    0.22656    1.000
    Si4513   Si       0.76484    0.06899    0.15002    1.000
    Si4514   Si       0.75699    0.13267    0.17817    1.000
    Si4515   Si       0.77092    0.25645    0.15642    1.000
    Si4516   Si       0.76000    0.19116    0.13598    1.000
    N4517    N        0.76175    0.16515    0.20706    1.000
    N4518    N        0.77909    0.21562    0.16547    1.000
    N4519    N        0.77059    0.14810    0.13932    1.000
    N4520    N        0.79023    0.20720    0.24072    1.000
    Si4521   Si       0.79374    0.19320    0.19895    1.000
    Si4522   Si       0.79070    0.10375    0.33453    1.000
    Si4523   Si       0.79081    0.04530    0.29189    1.000
    N4524    N        0.77145    0.06610    0.32538    1.000
    N4525    N        0.77292    0.06898    0.25770    1.000
    N4526    N        0.76906    0.13786    0.34769    1.000
    N4527    N        0.77217    0.15342    0.27933    1.000
    N4528    N        0.76361    0.20583    0.33196    1.000
    Si4529   Si       0.80691    0.24436    0.25702    1.000
    Si4530   Si       0.76335    0.09015    0.43389    1.000
    N4531    N        0.77782    0.04837    0.42970    1.000
    Si4532   Si       0.78936    0.03005    0.46856    1.000
    N4533    N        0.77943    0.12193    0.41101    1.000
    N4534    N        0.75771    0.10805    0.47385    1.000
    Si4535   Si       0.75634    0.01899    0.40415    1.000
    Si4536   Si       0.77285    0.21879    0.37193    1.000
    N4537    N        0.76546    0.18678    0.39985    1.000
    N4538    N        0.77104    0.17558    0.47884    1.000
    Si4539   Si       0.78558    0.13746    0.49102    1.000
    N4540    N        0.76208    0.23082    0.45481    1.000
    Si4541   Si       0.78312    0.19591    0.43954    1.000
    Si4542   Si       0.77273    0.10965    0.57348    1.000
    Si4543   Si       0.78170    0.04056    0.54473    1.000
    N4544    N        0.78147    0.05295    0.50361    1.000
    N4545    N        0.77604    0.12346    0.53171    1.000
    N4546    N        0.77288    0.01463    0.60458    1.000
    N4547    N        0.75366    0.07115    0.55948    1.000
    N4548    N        0.81245    0.11802    0.59237    1.000
    Si4549   Si       0.78684    0.22743    0.55611    1.000
    N4550    N        0.78146    0.23652    0.51527    1.000
    N4551    N        0.80311    0.10889    0.65905    1.000
    N4552    N        0.78205    0.05022    0.66960    1.000
    Si4553   Si       0.77295    0.06293    0.71304    1.000
    Si4554   Si       0.76488    0.09131    0.66303    1.000
    N4555    N        0.75851    0.02572    0.72885    1.000
    N4556    N        0.80802    0.07889    0.73407    1.000
    Si4557   Si       0.81426    0.12080    0.74461    1.000
    N4558    N        0.77938    0.23309    0.65904    1.000
    Si4559   Si       0.78580    0.18783    0.72513    1.000
    N4560    N        0.79664    0.17404    0.62830    1.000
    N4561    N        0.78107    0.14353    0.72748    1.000
    Si4562   Si       0.75437    0.16013    0.62660    1.000
    Si4563   Si       0.76502    0.08706    0.81261    1.000
    N4564    N        0.76470    0.04612    0.79766    1.000
    N4565    N        0.80419    0.09200    0.83005    1.000
    Si4566   Si       0.76704    0.01263    0.76843    1.000
    Si4567   Si       0.75692    0.02206    0.83594    1.000
    N4568    N        0.79887    0.13314    0.78386    1.000
    Si4569   Si       0.79301    0.19418    0.85521    1.000
    Si4570   Si       0.79078    0.21675    0.78556    1.000
    N4571    N        0.79935    0.15198    0.85962    1.000
    N4572    N        0.76188    0.19144    0.76604    1.000
    Si4573   Si       0.75799    0.14697    0.76830    1.000
    N4574    N        0.77730    0.25626    0.79119    1.000
    N4575    N        0.81346    0.20312    0.81766    1.000
    N4576    N        0.77914    0.03838    0.86997    1.000
    N4577    N        0.77245    0.09849    0.90198    1.000
    N4578    N        0.77985    0.09681    0.97159    1.000
    Si4579   Si       0.79081    0.01224    0.90637    1.000
    Si4580   Si       0.75588    0.11388    0.94204    1.000
    N4581    N        0.76620    0.15588    0.92714    1.000
    N4582    N        0.80690    0.21144    0.89259    1.000
    Si4583   Si       0.79474    0.13511    0.89854    1.000
    Si4584   Si       0.78047    0.24542    0.90749    1.000
    Si4585   Si       0.79807    0.33027    0.03299    1.000
    Si4586   Si       0.79597    0.30858    0.10690    1.000
    N4587    N        0.78565    0.28927    0.00464    1.000
    N4588    N        0.81206    0.30239    0.06615    1.000
    N4589    N        0.75515    0.33682    0.04031    1.000
    N4590    N        0.78856    0.49830    0.04809    1.000
    Si4591   Si       0.78510    0.45522    0.05702    1.000
    N4592    N        0.76279    0.45472    0.09482    1.000
    N4593    N        0.79671    0.40524    0.11275    1.000
    N4594    N        0.75491    0.44220    0.02900    1.000
    N4595    N        0.80236    0.27374    0.13206    1.000
    Si4596   Si       0.79843    0.49588    0.18656    1.000
    Si4597   Si       0.76952    0.48358    0.12642    1.000
    Si4598   Si       0.78770    0.41731    0.15429    1.000
    Si4599   Si       0.79749    0.40448    0.22860    1.000
    N4600    N        0.78878    0.46062    0.15928    1.000
    N4601    N        0.79911    0.49972    0.22954    1.000
    N4602    N        0.77780    0.39523    0.19251    1.000
    N4603    N        0.79723    0.29134    0.35292    1.000
    Si4604   Si       0.80000    0.32428    0.32590    1.000
    N4605    N        0.76376    0.32693    0.30248    1.000
    Si4606   Si       0.76211    0.35274    0.26378    1.000
    N4607    N        0.80093    0.36828    0.25323    1.000
    N4608    N        0.81456    0.36331    0.33888    1.000
    N4609    N        0.77211    0.25992    0.27716    1.000
    N4610    N        0.77114    0.42850    0.25291    1.000
    Si4611   Si       0.78867    0.39454    0.35708    1.000
    Si4612   Si       0.78680    0.46928    0.25920    1.000
    N4613    N        0.78940    0.50044    0.34226    1.000
    N4614    N        0.80246    0.43604    0.36292    1.000
    Si4615   Si       0.77430    0.46709    0.36583    1.000
    N4616    N        0.75738    0.49111    0.28182    1.000
    Si4617   Si       0.77627    0.32979    0.45813    1.000
    Si4618   Si       0.78168    0.26152    0.47880    1.000
    N4619    N        0.81391    0.33352    0.43952    1.000
    N4620    N        0.78329    0.37866    0.39866    1.000
    N4621    N        0.75554    0.47939    0.40527    1.000
    Si4622   Si       0.80329    0.49840    0.48192    1.000
    N4623    N        0.81034    0.46070    0.46125    1.000
    Si4624   Si       0.78571    0.42600    0.47133    1.000
    N4625    N        0.79326    0.32367    0.59396    1.000
    Si4626   Si       0.76231    0.29449    0.58544    1.000
    N4627    N        0.77800    0.34371    0.50034    1.000
    N4628    N        0.79473    0.26270    0.58011    1.000
    Si4629   Si       0.80556    0.37704    0.50774    1.000
    Si4630   Si       0.80314    0.36058    0.61646    1.000
    N4631    N        0.77063    0.45653    0.57458    1.000
    Si4632   Si       0.78181    0.43422    0.61126    1.000
    N4633    N        0.77676    0.41662    0.51404    1.000
    Si4634   Si       0.79299    0.45099    0.53827    1.000
    N4635    N        0.80152    0.49155    0.52435    1.000
    N4636    N        0.80621    0.40034    0.59808    1.000
    N4637    N        0.76690    0.29703    0.65591    1.000
    N4638    N        0.77748    0.36427    0.65374    1.000
    Si4639   Si       0.77759    0.32970    0.67997    1.000
    Si4640   Si       0.80331    0.27405    0.66705    1.000
    N4641    N        0.81176    0.30925    0.69670    1.000
    N4642    N        0.78911    0.46615    0.64185    1.000
    Si4643   Si       0.76410    0.41120    0.73848    1.000
    Si4644   Si       0.78386    0.45849    0.68361    1.000
    N4645    N        0.77006    0.41628    0.69420    1.000
    N4646    N        0.75872    0.48693    0.70619    1.000
    Si4647   Si       0.79464    0.29401    0.79841    1.000
    N4648    N        0.76774    0.31512    0.82687    1.000
    N4649    N        0.79634    0.31630    0.76034    1.000
    Si4650   Si       0.75686    0.33674    0.75570    1.000
    N4651    N        0.79174    0.41088    0.82079    1.000
    N4652    N        0.80136    0.42259    0.75516    1.000
    Si4653   Si       0.80331    0.47486    0.84193    1.000
    Si4654   Si       0.80376    0.41208    0.86496    1.000
    N4655    N        0.76046    0.47585    0.83980    1.000
    Si4656   Si       0.77315    0.31254    0.86993    1.000
    Si4657   Si       0.80153    0.36497    0.97112    1.000
    Si4658   Si       0.77396    0.29839    0.96344    1.000
    N4659    N        0.76547    0.34134    0.97203    1.000
    N4660    N        0.79713    0.26956    0.94055    1.000
    N4661    N        0.75986    0.27241    0.87751    1.000
    N4662    N        0.79732    0.47840    0.98484    1.000
    N4663    N        0.76497    0.40950    0.88274    1.000
    Si4664   Si       0.77601    0.43962    0.98904    1.000
    N4665    N        0.79784    0.40311    0.99131    1.000
    Si4666   Si       0.79302    0.53085    0.07520    1.000
    Si4667   Si       0.77723    0.58985    0.08922    1.000
    N4668    N        0.78345    0.55258    0.01386    1.000
    Si4669   Si       0.76309    0.58899    0.01543    1.000
    N4670    N        0.76577    0.61408    0.05501    1.000
    N4671    N        0.79117    0.62243    0.11743    1.000
    N4672    N        0.80045    0.51335    0.11499    1.000
    N4673    N        0.75448    0.55096    0.08114    1.000
    Si4674   Si       0.77563    0.50983    0.00765    1.000
    Si4675   Si       0.79286    0.66295    0.09986    1.000
    N4676    N        0.75948    0.75183    0.08435    1.000
    Si4677   Si       0.81305    0.64070    0.02164    1.000
    N4678    N        0.80906    0.67879    0.99929    1.000
    N4679    N        0.77068    0.52794    0.18201    1.000
    Si4680   Si       0.75890    0.61218    0.16961    1.000
    N4681    N        0.79949    0.60910    0.18201    1.000
    Si4682   Si       0.78014    0.54140    0.22143    1.000
    N4683    N        0.79712    0.70477    0.19974    1.000
    N4684    N        0.80840    0.75588    0.14891    1.000
    Si4685   Si       0.79463    0.71440    0.15663    1.000
    Si4686   Si       0.76130    0.72550    0.21647    1.000
    Si4687   Si       0.78014    0.54209    0.35325    1.000
    N4688    N        0.79987    0.61175    0.30825    1.000
    Si4689   Si       0.75824    0.60347    0.30879    1.000
    N4690    N        0.75817    0.56113    0.32083    1.000
    N4691    N        0.78042    0.67396    0.30057    1.000
    Si4692   Si       0.78977    0.71260    0.28741    1.000
    N4693    N        0.76522    0.73164    0.25909    1.000
    Si4694   Si       0.76070    0.66963    0.33911    1.000
    N4695    N        0.77390    0.60646    0.38573    1.000
    Si4696   Si       0.78249    0.58078    0.41761    1.000
    N4697    N        0.76670    0.54277    0.39340    1.000
    N4698    N        0.77790    0.52483    0.45865    1.000
    N4699    N        0.76238    0.59694    0.45200    1.000
    Si4700   Si       0.78376    0.50854    0.41816    1.000
    N4701    N        0.79102    0.67021    0.37174    1.000
    Si4702   Si       0.80839    0.63279    0.38623    1.000
    N4703    N        0.76125    0.71092    0.41765    1.000
    N4704    N        0.78156    0.66975    0.47894    1.000
    Si4705   Si       0.80018    0.70376    0.39689    1.000
    Si4706   Si       0.77734    0.71133    0.45986    1.000
    N4707    N        0.79860    0.73778    0.49139    1.000
    N4708    N        0.77806    0.55703    0.55176    1.000
    Si4709   Si       0.79429    0.59648    0.56433    1.000
    N4710    N        0.76543    0.61478    0.59148    1.000
    N4711    N        0.80520    0.62063    0.52747    1.000
    Si4712   Si       0.81031    0.52650    0.54891    1.000
    Si4713   Si       0.77285    0.70367    0.57548    1.000
    Si4714   Si       0.77492    0.64861    0.51453    1.000
    Si4715   Si       0.76104    0.74392    0.51830    1.000
    N4716    N        0.76397    0.68618    0.61394    1.000
    N4717    N        0.76173    0.74395    0.56319    1.000
    N4718    N        0.75720    0.67525    0.54507    1.000
    Si4719   Si       0.77647    0.64316    0.62175    1.000
    Si4720   Si       0.76381    0.53033    0.69540    1.000
    N4721    N        0.79274    0.52967    0.66287    1.000
    N4722    N        0.76744    0.55643    0.73100    1.000
    N4723    N        0.75569    0.62951    0.74186    1.000
    Si4724   Si       0.78738    0.50712    0.62676    1.000
    N4725    N        0.77871    0.73991    0.72337    1.000
    N4726    N        0.77362    0.57435    0.79301    1.000
    N4727    N        0.78575    0.58398    0.86020    1.000
    Si4728   Si       0.79741    0.59767    0.81984    1.000
    Si4729   Si       0.76292    0.52025    0.84297    1.000
    Si4730   Si       0.80030    0.56480    0.75946    1.000
    N4731    N        0.80648    0.52093    0.83891    1.000
    Si4732   Si       0.79198    0.63548    0.76213    1.000
    N4733    N        0.78736    0.63645    0.80672    1.000
    Si4734   Si       0.77180    0.66565    0.83299    1.000
    Si4735   Si       0.77366    0.72510    0.85217    1.000
    Si4736   Si       0.78661    0.71077    0.75571    1.000
    N4737    N        0.80386    0.69427    0.84419    1.000
    N4738    N        0.80916    0.73577    0.78320    1.000
    N4739    N        0.80882    0.67262    0.75185    1.000
    N4740    N        0.76363    0.64919    0.87146    1.000
    Si4741   Si       0.78796    0.60981    0.94657    1.000
    N4742    N        0.79218    0.56719    0.93395    1.000
    N4743    N        0.78016    0.62118    0.99424    1.000
    Si4744   Si       0.75403    0.55497    0.91698    1.000
    Si4745   Si       0.77266    0.66479    0.97949    1.000
    N4746    N        0.78516    0.74394    0.95618    1.000
    N4747    N        0.77274    0.65290    0.93789    1.000
    N4748    N        0.76838    0.71527    0.89434    1.000
    Si4749   Si       0.78104    0.67471    0.90161    1.000
    Si4750   Si       0.75582    0.74976    0.91770    1.000
    N4751    N        0.77853    0.85114    0.08202    1.000
    Si4752   Si       0.80044    0.81980    0.05854    1.000
    Si4753   Si       0.78669    0.77083    0.11392    1.000
    Si4754   Si       0.77332    0.79675    0.00271    1.000
    N4755    N        0.75835    0.81266    0.04207    1.000
    N4756    N        0.80695    0.90959    0.04023    1.000
    Si4757   Si       0.77615    0.91867    0.06789    1.000
    N4758    N        0.79464    0.91476    0.10773    1.000
    N4759    N        0.76788    0.96301    0.06545    1.000
    Si4760   Si       0.79781    0.98487    0.08915    1.000
    Si4761   Si       0.80685    0.93912    0.00767    1.000
    Si4762   Si       0.78644    0.87316    0.11793    1.000
    Si4763   Si       0.78173    0.79101    0.17895    1.000
    N4764    N        0.76510    0.80024    0.13656    1.000
    N4765    N        0.77277    0.83105    0.20113    1.000
    Si4766   Si       0.78931    0.99637    0.16897    1.000
    N4767    N        0.79559    0.93750    0.17716    1.000
    Si4768   Si       0.77291    0.93890    0.14060    1.000
    N4769    N        0.78351    0.97903    0.12849    1.000
    N4770    N        0.79347    0.91207    0.24662    1.000
    Si4771   Si       0.77187    0.79255    0.33678    1.000
    N4772    N        0.76392    0.80365    0.25850    1.000
    N4773    N        0.80257    0.81000    0.31198    1.000
    Si4774   Si       0.80502    0.80727    0.26898    1.000
    N4775    N        0.77158    0.93950    0.30549    1.000
    N4776    N        0.79049    0.89870    0.36058    1.000
    Si4777   Si       0.80713    0.92553    0.28580    1.000
    Si4778   Si       0.75844    0.91829    0.34029    1.000
    Si4779   Si       0.75532    0.97973    0.29012    1.000
    N4780    N        0.78768    0.00279    0.30850    1.000
    N4781    N        0.79268    0.77712    0.37178    1.000
    N4782    N        0.79518    0.84795    0.41374    1.000
    N4783    N        0.77224    0.78360    0.43917    1.000
    Si4784   Si       0.79666    0.80368    0.40767    1.000
    Si4785   Si       0.79128    0.78019    0.47722    1.000
    N4786    N        0.75011    0.87591    0.46690    1.000
    N4787    N        0.78884    0.98954    0.40564    1.000
    N4788    N        0.77904    0.98776    0.47448    1.000
    N4789    N        0.77476    0.92782    0.42272    1.000
    Si4790   Si       0.79079    0.89132    0.40633    1.000
    Si4791   Si       0.79331    0.96206    0.44148    1.000
    N4792    N        0.76693    0.78510    0.51110    1.000
    N4793    N        0.76142    0.81246    0.59444    1.000
    Si4794   Si       0.80273    0.81050    0.60579    1.000
    N4795    N        0.77333    0.87812    0.58477    1.000
    Si4796   Si       0.80907    0.87301    0.56163    1.000
    N4797    N        0.80544    0.88322    0.51912    1.000
    Si4798   Si       0.76298    0.88494    0.50632    1.000
    N4799    N        0.78143    0.94766    0.58546    1.000
    Si4800   Si       0.77348    0.91236    0.60899    1.000
    Si4801   Si       0.77927    0.96659    0.51271    1.000
    N4802    N        0.77361    0.99917    0.54200    1.000
    Si4803   Si       0.75823    0.98235    0.57887    1.000
    N4804    N        0.75455    0.93109    0.51262    1.000
    N4805    N        0.78757    0.80963    0.71332    1.000
    Si4806   Si       0.78884    0.77065    0.69475    1.000
    Si4807   Si       0.79939    0.83530    0.68276    1.000
    N4808    N        0.76536    0.85706    0.66658    1.000
    Si4809   Si       0.75628    0.99418    0.69858    1.000
    Si4810   Si       0.75673    0.89814    0.66871    1.000
    Si4811   Si       0.80633    0.89318    0.72702    1.000
    Si4812   Si       0.80767    0.94073    0.67527    1.000
    N4813    N        0.78191    0.91784    0.70146    1.000
    N4814    N        0.79905    0.90926    0.64236    1.000
    N4815    N        0.79360    0.98107    0.67886    1.000
    N4816    N        0.79966    0.80516    0.78189    1.000
    Si4817   Si       0.78337    0.76888    0.79764    1.000
    N4818    N        0.76707    0.83052    0.86158    1.000
    Si4819   Si       0.77534    0.82719    0.75196    1.000
    N4820    N        0.77865    0.86991    0.74989    1.000
    N4821    N        0.78565    0.76467    0.84194    1.000
    Si4822   Si       0.79609    0.79861    0.86808    1.000
    N4823    N        0.76835    0.93048    0.78884    1.000
    N4824    N        0.77401    0.98499    0.82920    1.000
    N4825    N        0.80065    0.98658    0.76212    1.000
    Si4826   Si       0.80697    0.94608    0.78013    1.000
    Si4827   Si       0.78267    0.86792    0.87755    1.000
    N4828    N        0.78189    0.78685    0.90786    1.000
    Si4829   Si       0.79058    0.81903    0.93513    1.000
    N4830    N        0.79466    0.85971    0.91984    1.000
    N4831    N        0.76047    0.81615    0.96576    1.000
    N4832    N        0.76717    0.95419    0.99346    1.000
    Si4833   Si       0.80333    0.89933    0.93539    1.000
    N4834    N        0.80987    0.97986    0.94710    1.000
    Si4835   Si       0.76530    0.96431    0.94784    1.000
    N4836    N        0.76788    0.92418    0.92989    1.000
    Si4837   Si       0.86281    0.10192    0.01198    1.000
    N4838    N        0.82315    0.10424    0.02892    1.000
    Si4839   Si       0.82599    0.01736    0.03460    1.000
    N4840    N        0.86681    0.02116    0.05147    1.000
    N4841    N        0.82553    0.12955    0.10045    1.000
    N4842    N        0.81419    0.04217    0.00127    1.000
    Si4843   Si       0.83270    0.13495    0.05774    1.000
    Si4844   Si       0.83064    0.21231    0.02337    1.000
    N4845    N        0.85443    0.23942    0.05293    1.000
    N4846    N        0.81998    0.17369    0.04431    1.000
    Si4847   Si       0.82829    0.04240    0.18006    1.000
    N4848    N        0.83144    0.06372    0.21752    1.000
    N4849    N        0.85282    0.11864    0.17063    1.000
    N4850    N        0.81691    0.12625    0.23629    1.000
    N4851    N        0.86319    0.04726    0.15733    1.000
    Si4852   Si       0.85548    0.13318    0.13000    1.000
    N4853    N        0.86491    0.23930    0.15784    1.000
    Si4854   Si       0.84719    0.13907    0.20864    1.000
    Si4855   Si       0.86338    0.19667    0.16816    1.000
    N4856    N        0.83158    0.17820    0.19058    1.000
    N4857    N        0.83055    0.03168    0.28056    1.000
    Si4858   Si       0.85283    0.09293    0.32815    1.000
    N4859    N        0.82021    0.10543    0.30198    1.000
    N4860    N        0.82300    0.09424    0.36237    1.000
    Si4861   Si       0.85627    0.04601    0.24882    1.000
    Si4862   Si       0.86327    0.20595    0.29917    1.000
    Si4863   Si       0.85925    0.16038    0.33950    1.000
    N4864    N        0.84088    0.16851    0.30125    1.000
    N4865    N        0.83618    0.23935    0.28938    1.000
    Si4866   Si       0.81595    0.14134    0.27796    1.000
    N4867    N        0.83171    0.03171    0.45591    1.000
    N4868    N        0.83776    0.03108    0.38673    1.000
    Si4869   Si       0.85288    0.10531    0.46381    1.000
    N4870    N        0.83526    0.09237    0.42717    1.000
    Si4871   Si       0.82180    0.12070    0.39670    1.000
    Si4872   Si       0.82311    0.05044    0.41991    1.000
    Si4873   Si       0.85356    0.16966    0.46375    1.000
    N4874    N        0.81759    0.22657    0.37963    1.000
    N4875    N        0.84164    0.15812    0.37864    1.000
    Si4876   Si       0.84484    0.19940    0.39995    1.000
    N4877    N        0.82691    0.19069    0.43867    1.000
    N4878    N        0.82740    0.13560    0.47989    1.000
    Si4879   Si       0.84218    0.08686    0.57996    1.000
    N4880    N        0.81893    0.05146    0.57031    1.000
    Si4881   Si       0.81760    0.01494    0.59739    1.000
    N4882    N        0.86409    0.09408    0.61939    1.000
    N4883    N        0.81536    0.19346    0.55820    1.000
    Si4884   Si       0.85864    0.20263    0.54942    1.000
    N4885    N        0.85926    0.16126    0.59355    1.000
    N4886    N        0.85946    0.24236    0.52773    1.000
    Si4887   Si       0.81528    0.16311    0.58973    1.000
    N4888    N        0.83878    0.01502    0.63503    1.000
    N4889    N        0.83931    0.02042    0.70617    1.000
    Si4890   Si       0.84317    0.05541    0.73180    1.000
    Si4891   Si       0.83479    0.12318    0.63241    1.000
    Si4892   Si       0.81348    0.01860    0.67028    1.000
    N4893    N        0.85087    0.13534    0.73024    1.000
    Si4894   Si       0.85192    0.16546    0.69810    1.000
    N4895    N        0.83640    0.24898    0.68703    1.000
    Si4896   Si       0.84874    0.23155    0.72386    1.000
    N4897    N        0.81646    0.18684    0.69379    1.000
    N4898    N        0.85759    0.15129    0.65828    1.000
    N4899    N        0.85034    0.21456    0.63737    1.000
    Si4900   Si       0.86455    0.25523    0.65367    1.000
    Si4901   Si       0.81217    0.20464    0.65466    1.000
    N4902    N        0.85397    0.02832    0.76579    1.000
    N4903    N        0.83226    0.02289    0.83091    1.000
    Si4904   Si       0.86789    0.02197    0.80594    1.000
    Si4905   Si       0.81544    0.05612    0.85337    1.000
    Si4906   Si       0.81892    0.13559    0.82319    1.000
    Si4907   Si       0.85688    0.19694    0.82076    1.000
    N4908    N        0.85903    0.15385    0.81487    1.000
    N4909    N        0.81707    0.21449    0.74818    1.000
    N4910    N        0.87113    0.20616    0.86134    1.000
    Si4911   Si       0.82440    0.01783    0.96627    1.000
    Si4912   Si       0.83533    0.07784    0.92026    1.000
    N4913    N        0.84818    0.06767    0.87941    1.000
    N4914    N        0.83326    0.12487    0.92091    1.000
    N4915    N        0.86715    0.01243    0.97069    1.000
    N4916    N        0.81444    0.04010    0.92934    1.000
    Si4917   Si       0.85138    0.20949    0.90036    1.000
    N4918    N        0.83944    0.21853    0.98125    1.000
    N4919    N        0.87100    0.13546    0.98512    1.000
    Si4920   Si       0.86843    0.13967    0.94198    1.000
    N4921    N        0.85665    0.24921    0.92028    1.000
    N4922    N        0.86820    0.18373    0.93212    1.000
    Si4923   Si       0.83569    0.25610    0.95662    1.000
    Si4924   Si       0.85195    0.28334    0.06212    1.000
    N4925    N        0.86384    0.28190    0.10407    1.000
    N4926    N        0.82624    0.34123    0.99990    1.000
    Si4927   Si       0.82334    0.37856    0.09485    1.000
    Si4928   Si       0.86471    0.32069    0.99954    1.000
    N4929    N        0.82044    0.34142    0.11945    1.000
    N4930    N        0.81067    0.36965    0.05373    1.000
    N4931    N        0.82438    0.43441    0.04963    1.000
    Si4932   Si       0.86240    0.43312    0.06886    1.000
    Si4933   Si       0.82518    0.39841    0.02466    1.000
    N4934    N        0.86513    0.39456    0.08823    1.000
    N4935    N        0.87007    0.45840    0.10285    1.000
    N4936    N        0.86218    0.40271    0.99818    1.000
    Si4937   Si       0.85236    0.29106    0.21091    1.000
    N4938    N        0.85805    0.32826    0.23572    1.000
    N4939    N        0.82079    0.26725    0.22472    1.000
    N4940    N        0.85158    0.30563    0.17047    1.000
    Si4941   Si       0.84364    0.27335    0.14175    1.000
    Si4942   Si       0.85133    0.34540    0.15050    1.000
    N4943    N        0.84215    0.38520    0.16820    1.000
    Si4944   Si       0.86115    0.41262    0.19468    1.000
    N4945    N        0.86392    0.48802    0.23456    1.000
    N4946    N        0.83419    0.42696    0.22594    1.000
    N4947    N        0.83119    0.31384    0.29824    1.000
    Si4948   Si       0.85611    0.27702    0.30100    1.000
    Si4949   Si       0.85330    0.36874    0.35534    1.000
    Si4950   Si       0.83506    0.34611    0.26975    1.000
    N4951    N        0.86245    0.27428    0.34359    1.000
    Si4952   Si       0.82890    0.26796    0.37055    1.000
    N4953    N        0.86734    0.37296    0.27919    1.000
    Si4954   Si       0.84655    0.44586    0.36274    1.000
    Si4955   Si       0.82238    0.49381    0.31390    1.000
    N4956    N        0.85487    0.48192    0.34281    1.000
    N4957    N        0.82254    0.46273    0.28458    1.000
    N4958    N        0.85871    0.41039    0.34120    1.000
    Si4959   Si       0.85258    0.45057    0.25734    1.000
    Si4960   Si       0.84510    0.30226    0.44208    1.000
    N4961    N        0.84686    0.29203    0.40130    1.000
    N4962    N        0.82108    0.27667    0.47311    1.000
    N4963    N        0.85258    0.37809    0.40070    1.000
    Si4964   Si       0.81868    0.37430    0.42465    1.000
    Si4965   Si       0.85935    0.26892    0.49291    1.000
    N4966    N        0.85852    0.44876    0.40521    1.000
    N4967    N        0.81138    0.39100    0.46672    1.000
    Si4968   Si       0.84640    0.47876    0.43750    1.000
    N4969    N        0.83666    0.36673    0.53745    1.000
    N4970    N        0.85798    0.29832    0.56988    1.000
    Si4971   Si       0.82469    0.29139    0.59520    1.000
    Si4972   Si       0.86500    0.33144    0.54360    1.000
    Si4973   Si       0.83569    0.40075    0.56416    1.000
    N4974    N        0.83463    0.43740    0.54170    1.000
    N4975    N        0.86713    0.46966    0.58688    1.000
    N4976    N        0.86486    0.33020    0.73603    1.000
    N4977    N        0.83766    0.28428    0.63541    1.000
    N4978    N        0.84052    0.35541    0.63910    1.000
    Si4979   Si       0.82924    0.30849    0.73551    1.000
    Si4980   Si       0.85463    0.46519    0.67083    1.000
    N4981    N        0.84514    0.39443    0.70739    1.000
    Si4982   Si       0.85655    0.38761    0.66331    1.000
    Si4983   Si       0.83385    0.43064    0.72849    1.000
    N4984    N        0.85066    0.50211    0.64434    1.000
    N4985    N        0.82280    0.45926    0.69890    1.000
    N4986    N        0.86180    0.42735    0.64991    1.000
    N4987    N        0.83697    0.29308    0.81147    1.000
    Si4988   Si       0.84949    0.30818    0.84833    1.000
    Si4989   Si       0.86844    0.27258    0.78852    1.000
    N4990    N        0.86130    0.26912    0.74548    1.000
    Si4991   Si       0.86674    0.38215    0.84184    1.000
    N4992    N        0.85856    0.40434    0.80560    1.000
    Si4993   Si       0.82179    0.42699    0.79388    1.000
    N4994    N        0.82040    0.46887    0.80406    1.000
    N4995    N        0.86804    0.44330    0.75265    1.000
    N4996    N        0.82789    0.36687    0.93811    1.000
    N4997    N        0.85782    0.28468    0.97712    1.000
    Si4998   Si       0.83855    0.34975    0.90029    1.000
    N4999    N        0.81709    0.31858    0.87593    1.000
    N5000    N        0.83571    0.38244    0.87004    1.000
    Si5001   Si       0.84779    0.46459    0.90439    1.000
    N5002    N        0.84163    0.43695    0.93917    1.000
    N5003    N        0.81985    0.45089    0.87325    1.000
    Si5004   Si       0.85479    0.39994    0.95375    1.000
    N5005    N        0.83162    0.49971    0.92676    1.000
    Si5006   Si       0.83584    0.47545    0.96535    1.000
    Si5007   Si       0.85196    0.58104    0.05366    1.000
    N5008    N        0.84389    0.60966    0.02152    1.000
    N5009    N        0.81512    0.56965    0.07562    1.000
    N5010    N        0.82760    0.72512    0.06368    1.000
    Si5011   Si       0.84852    0.68785    0.06350    1.000
    N5012    N        0.86684    0.74217    0.11769    1.000
    N5013    N        0.87307    0.66935    0.09206    1.000
    N5014    N        0.81612    0.65832    0.06216    1.000
    N5015    N        0.87185    0.69491    0.02676    1.000
    Si5016   Si       0.83974    0.52443    0.24292    1.000
    N5017    N        0.86564    0.60069    0.20854    1.000
    Si5018   Si       0.82274    0.60342    0.21928    1.000
    Si5019   Si       0.82147    0.61242    0.14574    1.000
    Si5020   Si       0.83643    0.52900    0.13693    1.000
    N5021    N        0.83838    0.57169    0.14003    1.000
    N5022    N        0.81589    0.56203    0.22882    1.000
    N5023    N        0.86056    0.63225    0.14914    1.000
    N5024    N        0.83747    0.50855    0.17285    1.000
    N5025    N        0.86769    0.67973    0.22163    1.000
    N5026    N        0.86597    0.74887    0.18991    1.000
    N5027    N        0.81608    0.68443    0.13240    1.000
    N5028    N        0.81376    0.63915    0.24081    1.000
    Si5029   Si       0.82387    0.67980    0.22357    1.000
    Si5030   Si       0.85976    0.67251    0.13530    1.000
    Si5031   Si       0.83040    0.59142    0.33202    1.000
    N5032    N        0.83567    0.52484    0.28836    1.000
    N5033    N        0.82221    0.55422    0.35221    1.000
    N5034    N        0.84344    0.62124    0.36206    1.000
    N5035    N        0.86579    0.58650    0.30711    1.000
    N5036    N        0.81228    0.74017    0.31152    1.000
    N5037    N        0.85649    0.65349    0.29310    1.000
    N5038    N        0.82624    0.70154    0.26498    1.000
    Si5039   Si       0.84097    0.74117    0.27786    1.000
    Si5040   Si       0.81421    0.64680    0.28527    1.000
    Si5041   Si       0.82438    0.75409    0.35179    1.000
    Si5042   Si       0.87124    0.68597    0.26579    1.000
    Si5043   Si       0.86078    0.54716    0.48715    1.000
    N5044    N        0.84237    0.51267    0.46952    1.000
    Si5045   Si       0.84117    0.54013    0.39008    1.000
    N5046    N        0.82449    0.56814    0.41929    1.000
    N5047    N        0.84855    0.58839    0.47719    1.000
    Si5048   Si       0.84708    0.60025    0.43633    1.000
    N5049    N        0.82418    0.50093    0.40585    1.000
    Si5050   Si       0.82065    0.66496    0.46108    1.000
    N5051    N        0.81746    0.70082    0.43692    1.000
    N5052    N        0.84907    0.65704    0.49197    1.000
    N5053    N        0.83356    0.72075    0.37638    1.000
    N5054    N        0.82133    0.63547    0.42833    1.000
    N5055    N        0.84447    0.54804    0.53035    1.000
    N5056    N        0.83188    0.59246    0.58531    1.000
    Si5057   Si       0.84408    0.61845    0.50962    1.000
    Si5058   Si       0.86505    0.57286    0.56176    1.000
    Si5059   Si       0.85636    0.50903    0.60248    1.000
    N5060    N        0.81240    0.51462    0.59191    1.000
    Si5061   Si       0.83791    0.74672    0.57433    1.000
    Si5062   Si       0.83971    0.75268    0.50225    1.000
    N5063    N        0.81635    0.71101    0.57170    1.000
    Si5064   Si       0.85050    0.60822    0.62589    1.000
    N5065    N        0.84479    0.53528    0.70745    1.000
    N5066    N        0.85502    0.56997    0.65010    1.000
    Si5067   Si       0.83534    0.53661    0.66601    1.000
    Si5068   Si       0.86574    0.54206    0.74384    1.000
    N5069    N        0.81809    0.63881    0.63139    1.000
    Si5070   Si       0.84645    0.68104    0.73340    1.000
    N5071    N        0.83211    0.69083    0.69277    1.000
    Si5072   Si       0.85234    0.72580    0.67544    1.000
    N5073    N        0.85534    0.70170    0.63876    1.000
    Si5074   Si       0.84071    0.66621    0.65715    1.000
    N5075    N        0.83863    0.58262    0.82722    1.000
    N5076    N        0.83442    0.53733    0.77267    1.000
    N5077    N        0.82273    0.60420    0.75921    1.000
    Si5078   Si       0.82356    0.55821    0.85952    1.000
    Si5079   Si       0.86603    0.61278    0.75858    1.000
    Si5080   Si       0.83441    0.50961    0.80634    1.000
    N5081    N        0.86291    0.64922    0.84991    1.000
    Si5082   Si       0.85199    0.73652    0.78849    1.000
    Si5083   Si       0.84212    0.68450    0.86295    1.000
    N5084    N        0.86297    0.71961    0.74864    1.000
    N5085    N        0.86829    0.71630    0.82248    1.000
    Si5086   Si       0.83171    0.54322    0.93233    1.000
    N5087    N        0.83046    0.62021    0.95345    1.000
    N5088    N        0.84987    0.55535    0.97004    1.000
    N5089    N        0.84923    0.55441    0.89339    1.000
    Si5090   Si       0.85579    0.59717    0.98077    1.000
    N5091    N        0.85663    0.68927    0.95423    1.000
    N5092    N        0.84978    0.75262    0.91592    1.000
    Si5093   Si       0.84321    0.70673    0.99455    1.000
    Si5094   Si       0.84637    0.65245    0.93344    1.000
    N5095    N        0.84292    0.74874    0.98937    1.000
    N5096    N        0.82309    0.67030    0.89996    1.000
    N5097    N        0.83937    0.84450    0.06748    1.000
    Si5098   Si       0.83840    0.82550    0.10639    1.000
    Si5099   Si       0.85119    0.78532    0.01226    1.000
    N5100    N        0.81752    0.78974    0.08890    1.000
    N5101    N        0.81220    0.80191    0.01908    1.000
    Si5102   Si       0.84932    0.75976    0.08065    1.000
    N5103    N        0.86945    0.88185    0.01772    1.000
    Si5104   Si       0.84245    0.88576    0.05102    1.000
    N5105    N        0.83992    0.97126    0.09604    1.000
    N5106    N        0.82518    0.97741    0.01978    1.000
    N5107    N        0.86166    0.90463    0.08404    1.000
    Si5108   Si       0.83762    0.92918    0.10957    1.000
    N5109    N        0.82450    0.85764    0.13245    1.000
    Si5110   Si       0.85409    0.78161    0.21701    1.000
    N5111    N        0.82765    0.80411    0.19022    1.000
    Si5112   Si       0.85190    0.76566    0.15228    1.000
    N5113    N        0.86430    0.80373    0.13459    1.000
    Si5114   Si       0.84880    0.87915    0.15879    1.000
    Si5115   Si       0.81553    0.83959    0.20939    1.000
    N5116    N        0.82772    0.87891    0.19629    1.000
    Si5117   Si       0.85877    0.98000    0.20820    1.000
    N5118    N        0.85286    0.94119    0.22288    1.000
    N5119    N        0.82446    0.99982    0.19311    1.000
    Si5120   Si       0.81839    0.91995    0.21053    1.000
    N5121    N        0.85790    0.92009    0.14807    1.000
    Si5122   Si       0.84280    0.82044    0.32889    1.000
    Si5123   Si       0.84867    0.86731    0.27604    1.000
    N5124    N        0.85617    0.78102    0.34106    1.000
    N5125    N        0.83637    0.84795    0.36116    1.000
    N5126    N        0.83107    0.77544    0.25408    1.000
    N5127    N        0.82232    0.84316    0.25279    1.000
    N5128    N        0.87088    0.83825    0.30119    1.000
    N5129    N        0.82700    0.88922    0.30367    1.000
    Si5130   Si       0.83133    0.88931    0.34796    1.000
    N5131    N        0.83778    0.95499    0.28585    1.000
    Si5132   Si       0.82861    0.99419    0.30184    1.000
    N5133    N        0.84795    0.99075    0.34026    1.000
    Si5134   Si       0.86815    0.95550    0.35332    1.000
    N5135    N        0.86777    0.91197    0.34832    1.000
    Si5136   Si       0.86930    0.93550    0.26380    1.000
    N5137    N        0.85285    0.86092    0.46068    1.000
    Si5138   Si       0.84221    0.85132    0.40829    1.000
    N5139    N        0.84055    0.80707    0.41291    1.000
    N5140    N        0.83254    0.78873    0.47759    1.000
    Si5141   Si       0.86042    0.82235    0.47544    1.000
    N5142    N        0.85078    0.96003    0.39367    1.000
    Si5143   Si       0.85374    0.92961    0.42318    1.000
    Si5144   Si       0.82372    0.99133    0.37940    1.000
    N5145    N        0.83182    0.94525    0.45733    1.000
    N5146    N        0.83388    0.89516    0.40721    1.000
    Si5147   Si       0.85363    0.95493    0.49382    1.000
    Si5148   Si       0.85540    0.81680    0.55065    1.000
    N5149    N        0.84297    0.77461    0.54056    1.000
    N5150    N        0.82349    0.83436    0.57516    1.000
    N5151    N        0.85813    0.83946    0.51615    1.000
    N5152    N        0.82358    0.77118    0.60719    1.000
    Si5153   Si       0.84696    0.87963    0.50254    1.000
    N5154    N        0.83408    0.90599    0.57286    1.000
    N5155    N        0.83923    0.98539    0.57666    1.000
    Si5156   Si       0.82057    0.94600    0.56490    1.000
    N5157    N        0.81954    0.95522    0.52174    1.000
    Si5158   Si       0.86998    0.89812    0.59560    1.000
    Si5159   Si       0.84181    0.78428    0.64480    1.000
    N5160    N        0.82999    0.86776    0.69752    1.000
    Si5161   Si       0.86765    0.85154    0.71547    1.000
    N5162    N        0.86812    0.87571    0.63271    1.000
    N5163    N        0.81496    0.82041    0.64658    1.000
    N5164    N        0.86147    0.81722    0.74183    1.000
    N5165    N        0.82648    0.75926    0.67704    1.000
    Si5166   Si       0.83625    0.88756    0.66033    1.000
    Si5167   Si       0.83866    0.99446    0.74252    1.000
    N5168    N        0.84885    0.92764    0.67354    1.000
    N5169    N        0.87060    0.96516    0.73592    1.000
    Si5170   Si       0.84323    0.81117    0.78266    1.000
    Si5171   Si       0.85015    0.84747    0.84780    1.000
    N5172    N        0.85766    0.84642    0.80604    1.000
    N5173    N        0.82020    0.87999    0.85839    1.000
    N5174    N        0.86924    0.77627    0.78863    1.000
    N5175    N        0.83834    0.81003    0.86726    1.000
    N5176    N        0.83480    0.95869    0.81115    1.000
    N5177    N        0.82716    0.92005    0.75262    1.000
    Si5178   Si       0.81461    0.98391    0.84029    1.000
    Si5179   Si       0.86516    0.78434    0.89224    1.000
    N5180    N        0.82781    0.80555    0.95261    1.000
    Si5181   Si       0.86457    0.82761    0.95511    1.000
    Si5182   Si       0.82372    0.76312    0.95131    1.000
    Si5183   Si       0.83331    0.96020    0.91621    1.000
    Si5184   Si       0.85434    0.90273    0.87656    1.000
    N5185    N        0.83358    0.91751    0.91058    1.000
    N5186    N        0.81919    0.91074    0.97483    1.000
    Si5187   Si       0.86301    0.90164    0.97984    1.000
    N5188    N        0.81484    0.98207    0.88277    1.000
    Si5189   Si       0.90309    0.04284    0.03740    1.000
    Si5190   Si       0.90057    0.11043    0.08024    1.000
    N5191    N        0.88798    0.06840    0.00620    1.000
    N5192    N        0.91947    0.07642    0.06103    1.000
    N5193    N        0.87580    0.12964    0.04756    1.000
    N5194    N        0.91839    0.21105    0.07279    1.000
    Si5195   Si       0.91031    0.18169    0.10495    1.000
    Si5196   Si       0.89355    0.22684    0.04086    1.000
    N5197    N        0.88808    0.19581    0.01083    1.000
    Si5198   Si       0.89576    0.15393    0.01645    1.000
    N5199    N        0.92417    0.14491    0.08826    1.000
    N5200    N        0.88469    0.10217    0.11952    1.000
    N5201    N        0.92949    0.03274    0.16095    1.000
    N5202    N        0.90874    0.08869    0.19403    1.000
    Si5203   Si       0.90708    0.10494    0.23477    1.000
    Si5204   Si       0.88048    0.08798    0.16058    1.000
    Si5205   Si       0.89034    0.01738    0.14971    1.000
    N5206    N        0.87584    0.00676    0.23544    1.000
    N5207    N        0.87521    0.17283    0.13182    1.000
    N5208    N        0.89929    0.19222    0.19251    1.000
    N5209    N        0.88445    0.14081    0.23227    1.000
    Si5210   Si       0.90348    0.17962    0.23543    1.000
    Si5211   Si       0.90347    0.25396    0.17627    1.000
    Si5212   Si       0.90848    0.05886    0.29612    1.000
    N5213    N        0.88928    0.07355    0.25919    1.000
    N5214    N        0.88121    0.12468    0.33531    1.000
    N5215    N        0.87526    0.05727    0.32703    1.000
    Si5216   Si       0.92109    0.10932    0.35028    1.000
    Si5217   Si       0.86929    0.02767    0.35840    1.000
    N5218    N        0.87993    0.19862    0.33969    1.000
    N5219    N        0.88920    0.20802    0.26455    1.000
    Si5220   Si       0.90106    0.24831    0.25282    1.000
    N5221    N        0.90529    0.01953    0.38104    1.000
    Si5222   Si       0.91890    0.05135    0.40797    1.000
    N5223    N        0.90926    0.09024    0.39023    1.000
    N5224    N        0.91187    0.03118    0.44677    1.000
    Si5225   Si       0.90822    0.12470    0.41777    1.000
    N5226    N        0.87179    0.07342    0.48659    1.000
    Si5227   Si       0.87245    0.03048    0.46926    1.000
    N5228    N        0.88140    0.20205    0.47242    1.000
    N5229    N        0.91880    0.15906    0.39380    1.000
    Si5230   Si       0.90838    0.19639    0.37199    1.000
    N5231    N        0.87781    0.13766    0.44688    1.000
    Si5232   Si       0.89724    0.22859    0.44223    1.000
    N5233    N        0.88556    0.21449    0.40411    1.000
    N5234    N        0.90684    0.03427    0.53598    1.000
    Si5235   Si       0.89495    0.07713    0.52438    1.000
    Si5236   Si       0.92370    0.03237    0.57764    1.000
    N5237    N        0.92452    0.07274    0.59201    1.000
    N5238    N        0.87147    0.10287    0.55084    1.000
    N5239    N        0.92463    0.13728    0.58148    1.000
    Si5240   Si       0.91386    0.19339    0.50204    1.000
    Si5241   Si       0.91769    0.22085    0.60939    1.000
    Si5242   Si       0.88514    0.14289    0.56320    1.000
    N5243    N        0.88660    0.17376    0.53243    1.000
    N5244    N        0.88615    0.22277    0.57988    1.000
    N5245    N        0.89953    0.05159    0.65679    1.000
    Si5246   Si       0.90524    0.08602    0.62864    1.000
    Si5247   Si       0.90627    0.05132    0.69939    1.000
    N5248    N        0.91978    0.01502    0.71791    1.000
    Si5249   Si       0.88810    0.11601    0.73723    1.000
    N5250    N        0.87856    0.07660    0.72204    1.000
    Si5251   Si       0.88302    0.01544    0.64136    1.000
    N5252    N        0.93257    0.11480    0.64654    1.000
    N5253    N        0.90609    0.24888    0.64099    1.000
    Si5254   Si       0.91622    0.17893    0.72748    1.000
    N5255    N        0.87905    0.19845    0.71488    1.000
    N5256    N        0.91679    0.18230    0.62919    1.000
    Si5257   Si       0.87410    0.17845    0.63062    1.000
    N5258    N        0.91725    0.13748    0.71299    1.000
    N5259    N        0.90066    0.11408    0.77765    1.000
    Si5260   Si       0.91711    0.08081    0.79717    1.000
    N5261    N        0.88977    0.05648    0.82273    1.000
    Si5262   Si       0.88847    0.05636    0.86493    1.000
    Si5263   Si       0.90159    0.14964    0.80031    1.000
    N5264    N        0.91504    0.18046    0.77355    1.000
    Si5265   Si       0.91742    0.22053    0.78891    1.000
    Si5266   Si       0.89440    0.23906    0.84682    1.000
    N5267    N        0.92565    0.15027    0.83694    1.000
    N5268    N        0.87779    0.23233    0.80461    1.000
    N5269    N        0.90175    0.01568    0.87664    1.000
    Si5270   Si       0.88882    0.05134    0.96821    1.000
    Si5271   Si       0.91271    0.08655    0.92395    1.000
    N5272    N        0.91672    0.08250    0.87998    1.000
    N5273    N        0.91215    0.12799    0.93035    1.000
    N5274    N        0.92862    0.05449    0.95017    1.000
    N5275    N        0.87213    0.07742    0.93968    1.000
    N5276    N        0.92159    0.22062    0.95912    1.000
    Si5277   Si       0.88018    0.20526    0.96916    1.000
    Si5278   Si       0.92089    0.29822    0.03941    1.000
    N5279    N        0.87727    0.30893    0.03764    1.000
    Si5280   Si       0.90052    0.37810    0.10698    1.000
    Si5281   Si       0.89931    0.30238    0.11667    1.000
    N5282    N        0.92680    0.30238    0.08259    1.000
    N5283    N        0.91741    0.25886    0.02175    1.000
    N5284    N        0.89364    0.44457    0.04147    1.000
    Si5285   Si       0.90191    0.41749    0.00757    1.000
    Si5286   Si       0.89685    0.49411    0.10026    1.000
    N5287    N        0.93283    0.39146    0.02295    1.000
    Si5288   Si       0.93038    0.46858    0.04590    1.000
    N5289    N        0.88751    0.34247    0.12657    1.000
    N5290    N        0.91734    0.28298    0.14893    1.000
    N5291    N        0.88792    0.26500    0.21590    1.000
    Si5292   Si       0.88740    0.35920    0.24223    1.000
    N5293    N        0.92685    0.34632    0.23664    1.000
    N5294    N        0.89358    0.39283    0.21565    1.000
    Si5295   Si       0.87167    0.48998    0.19057    1.000
    N5296    N        0.92578    0.47007    0.12466    1.000
    N5297    N        0.91497    0.40446    0.13930    1.000
    Si5298   Si       0.89479    0.44345    0.13639    1.000
    N5299    N        0.87469    0.44986    0.17524    1.000
    N5300    N        0.89579    0.27726    0.28475    1.000
    N5301    N        0.88568    0.33990    0.35552    1.000
    Si5302   Si       0.92178    0.35925    0.35518    1.000
    N5303    N        0.92163    0.38979    0.32401    1.000
    N5304    N        0.88833    0.43732    0.27758    1.000
    Si5305   Si       0.88401    0.40412    0.30594    1.000
    Si5306   Si       0.88724    0.50854    0.34882    1.000
    Si5307   Si       0.88002    0.29952    0.37339    1.000
    Si5308   Si       0.89967    0.32454    0.47810    1.000
    N5309    N        0.91709    0.28767    0.38909    1.000
    Si5310   Si       0.88946    0.37027    0.42139    1.000
    N5311    N        0.92432    0.37423    0.39653    1.000
    N5312    N        0.87986    0.26776    0.45544    1.000
    N5313    N        0.87809    0.33257    0.44135    1.000
    N5314    N        0.91564    0.36069    0.49499    1.000
    Si5315   Si       0.91929    0.50473    0.45610    1.000
    N5316    N        0.89105    0.47170    0.45262    1.000
    N5317    N        0.89337    0.40311    0.44861    1.000
    Si5318   Si       0.91333    0.40338    0.48726    1.000
    Si5319   Si       0.89509    0.43971    0.42592    1.000
    N5320    N        0.90404    0.34388    0.56254    1.000
    N5321    N        0.92361    0.27784    0.56709    1.000
    Si5322   Si       0.88172    0.26258    0.55996    1.000
    Si5323   Si       0.92530    0.31425    0.58976    1.000
    N5324    N        0.87257    0.30754    0.50635    1.000
    Si5325   Si       0.91302    0.38235    0.58237    1.000
    N5326    N        0.89859    0.43176    0.51708    1.000
    N5327    N        0.90008    0.49080    0.53041    1.000
    Si5328   Si       0.88318    0.43794    0.61195    1.000
    N5329    N        0.87672    0.40433    0.58343    1.000
    Si5330   Si       0.87561    0.45690    0.54561    1.000
    N5331    N        0.92725    0.39397    0.62217    1.000
    Si5332   Si       0.93015    0.37913    0.66492    1.000
    N5333    N        0.90640    0.31666    0.62859    1.000
    Si5334   Si       0.92164    0.28644    0.65637    1.000
    N5335    N        0.89084    0.36375    0.67792    1.000
    Si5336   Si       0.88839    0.29618    0.72511    1.000
    N5337    N        0.88517    0.29191    0.68141    1.000
    Si5338   Si       0.87816    0.36816    0.71889    1.000
    Si5339   Si       0.86772    0.32395    0.65257    1.000
    Si5340   Si       0.89529    0.47339    0.73355    1.000
    N5341    N        0.89093    0.47615    0.69015    1.000
    N5342    N        0.91581    0.46246    0.62753    1.000
    Si5343   Si       0.91814    0.49256    0.66013    1.000
    N5344    N        0.90573    0.29480    0.79214    1.000
    Si5345   Si       0.91542    0.32549    0.82245    1.000
    N5346    N        0.87629    0.27674    0.86099    1.000
    N5347    N        0.87711    0.34002    0.83717    1.000
    N5348    N        0.90468    0.38565    0.74863    1.000
    N5349    N        0.90338    0.39897    0.85828    1.000
    Si5350   Si       0.89023    0.41599    0.77748    1.000
    N5351    N        0.87435    0.50123    0.82384    1.000
    Si5352   Si       0.91529    0.50446    0.83529    1.000
    N5353    N        0.92991    0.42285    0.79353    1.000
    Si5354   Si       0.88150    0.28164    0.90333    1.000
    Si5355   Si       0.90017    0.34830    0.93479    1.000
    N5356    N        0.89597    0.34322    0.97985    1.000
    N5357    N        0.92507    0.26629    0.90262    1.000
    N5358    N        0.87185    0.32331    0.91239    1.000
    N5359    N        0.92821    0.50189    0.94071    1.000
    Si5360   Si       0.92498    0.48672    0.90001    1.000
    N5361    N        0.88981    0.38738    0.92750    1.000
    Si5362   Si       0.90808    0.41502    0.89780    1.000
    N5363    N        0.91877    0.43882    0.97223    1.000
    Si5364   Si       0.91666    0.48526    0.98047    1.000
    N5365    N        0.89184    0.45637    0.89577    1.000
    N5366    N        0.87055    0.48703    0.98620    1.000
    Si5367   Si       0.91515    0.54130    0.03852    1.000
    Si5368   Si       0.92302    0.61498    0.01319    1.000
    N5369    N        0.88054    0.59652    0.08474    1.000
    Si5370   Si       0.87935    0.57198    0.11887    1.000
    N5371    N        0.87378    0.52685    0.11424    1.000
    N5372    N        0.87197    0.54751    0.03611    1.000
    N5373    N        0.91684    0.50463    0.06290    1.000
    Si5374   Si       0.87013    0.52853    0.99827    1.000
    Si5375   Si       0.90092    0.63608    0.08504    1.000
    N5376    N        0.91239    0.64585    0.04401    1.000
    Si5377   Si       0.91326    0.69221    0.04288    1.000
    N5378    N        0.91731    0.71615    0.07851    1.000
    Si5379   Si       0.90596    0.72300    0.12091    1.000
    Si5380   Si       0.90673    0.51005    0.23579    1.000
    Si5381   Si       0.88796    0.60888    0.17330    1.000
    Si5382   Si       0.89727    0.58489    0.23707    1.000
    N5383    N        0.90659    0.51469    0.19262    1.000
    N5384    N        0.90739    0.57596    0.15123    1.000
    N5385    N        0.93197    0.57402    0.21085    1.000
    Si5386   Si       0.93274    0.66426    0.15091    1.000
    N5387    N        0.92094    0.63491    0.18041    1.000
    N5388    N        0.92320    0.71463    0.21473    1.000
    Si5389   Si       0.88525    0.70840    0.19328    1.000
    N5390    N        0.89607    0.69375    0.15319    1.000
    N5391    N        0.90934    0.61158    0.26882    1.000
    N5392    N        0.90462    0.52855    0.31571    1.000
    Si5393   Si       0.88821    0.62471    0.30457    1.000
    N5394    N        0.88354    0.54571    0.24918    1.000
    N5395    N        0.91051    0.62870    0.34250    1.000
    Si5396   Si       0.87355    0.54656    0.29254    1.000
    N5397    N        0.90073    0.73041    0.35480    1.000
    N5398    N        0.88160    0.72836    0.27305    1.000
    N5399    N        0.91661    0.67914    0.27065    1.000
    Si5400   Si       0.92257    0.72040    0.25831    1.000
    Si5401   Si       0.92051    0.60769    0.43970    1.000
    N5402    N        0.88405    0.53807    0.38141    1.000
    N5403    N        0.88377    0.60838    0.41602    1.000
    N5404    N        0.90266    0.54186    0.47576    1.000
    N5405    N        0.92332    0.60779    0.48463    1.000
    Si5406   Si       0.92568    0.54360    0.39476    1.000
    Si5407   Si       0.89434    0.73136    0.45733    1.000
    Si5408   Si       0.92304    0.67761    0.41737    1.000
    Si5409   Si       0.87513    0.71517    0.38921    1.000
    N5410    N        0.90321    0.68797    0.45420    1.000
    Si5411   Si       0.88503    0.63155    0.37907    1.000
    N5412    N        0.87673    0.74597    0.41941    1.000
    N5413    N        0.88756    0.67340    0.39023    1.000
    Si5414   Si       0.88256    0.68330    0.49278    1.000
    Si5415   Si       0.91346    0.52036    0.55864    1.000
    N5416    N        0.88235    0.53789    0.58298    1.000
    Si5417   Si       0.91412    0.62714    0.52219    1.000
    N5418    N        0.87700    0.60827    0.53778    1.000
    N5419    N        0.89714    0.60199    0.61466    1.000
    Si5420   Si       0.92251    0.63150    0.59622    1.000
    N5421    N        0.91220    0.66916    0.51895    1.000
    N5422    N        0.89701    0.66670    0.59526    1.000
    Si5423   Si       0.88571    0.70279    0.60978    1.000
    Si5424   Si       0.92136    0.74568    0.58164    1.000
    N5425    N        0.87913    0.73459    0.58044    1.000
    N5426    N        0.87335    0.72748    0.49519    1.000
    Si5427   Si       0.89954    0.56954    0.64807    1.000
    N5428    N        0.91893    0.53233    0.64339    1.000
    N5429    N        0.92016    0.59261    0.68013    1.000
    Si5430   Si       0.92576    0.58704    0.72371    1.000
    N5431    N        0.88653    0.57959    0.74133    1.000
    Si5432   Si       0.91220    0.63029    0.65708    1.000
    N5433    N        0.87131    0.63561    0.65816    1.000
    N5434    N        0.87495    0.65059    0.73708    1.000
    N5435    N        0.92259    0.72356    0.62232    1.000
    Si5436   Si       0.90189    0.73043    0.73184    1.000
    N5437    N        0.89362    0.73493    0.68885    1.000
    N5438    N        0.92541    0.69669    0.74652    1.000
    Si5439   Si       0.91253    0.75393    0.65404    1.000
    Si5440   Si       0.91502    0.65985    0.72582    1.000
    N5441    N        0.90039    0.58398    0.85396    1.000
    N5442    N        0.89128    0.61725    0.79528    1.000
    N5443    N        0.89590    0.51205    0.75058    1.000
    Si5444   Si       0.87120    0.60856    0.83360    1.000
    N5445    N        0.92822    0.53766    0.81053    1.000
    Si5446   Si       0.89740    0.72487    0.85295    1.000
    N5447    N        0.91367    0.51984    0.87449    1.000
    N5448    N        0.91007    0.56635    0.92858    1.000
    Si5449   Si       0.89233    0.55609    0.88764    1.000
    Si5450   Si       0.91360    0.60979    0.93767    1.000
    N5451    N        0.89755    0.60952    0.97929    1.000
    N5452    N        0.91444    0.53016    0.99466    1.000
    Si5453   Si       0.87318    0.71772    0.92230    1.000
    N5454    N        0.88552    0.63868    0.91754    1.000
    Si5455   Si       0.89478    0.65849    0.88029    1.000
    N5456    N        0.91141    0.72981    0.93653    1.000
    N5457    N        0.88053    0.69941    0.88397    1.000
    Si5458   Si       0.91713    0.78192    0.03692    1.000
    Si5459   Si       0.89766    0.84766    0.01711    1.000
    N5460    N        0.92070    0.82471    0.04582    1.000
    N5461    N        0.92498    0.83349    0.11435    1.000
    N5462    N        0.87465    0.77440    0.04761    1.000
    N5463    N        0.92804    0.76697    0.99763    1.000
    Si5464   Si       0.90100    0.92149    0.08154    1.000
    N5465    N        0.89736    0.95862    0.05951    1.000
    Si5466   Si       0.87518    0.98956    0.07790    1.000
    N5467    N        0.92541    0.88924    0.06392    1.000
    N5468    N        0.90291    0.00797    0.10856    1.000
    N5469    N        0.92860    0.85859    0.22025    1.000
    N5470    N        0.92484    0.80112    0.17358    1.000
    N5471    N        0.89018    0.80269    0.22930    1.000
    Si5472   Si       0.89901    0.82507    0.14641    1.000
    Si5473   Si       0.92299    0.88022    0.18267    1.000
    N5474    N        0.88918    0.86321    0.16345    1.000
    Si5475   Si       0.92852    0.81561    0.21449    1.000
    N5476    N        0.88348    0.97904    0.17089    1.000
    N5477    N        0.92177    0.92328    0.18806    1.000
    N5478    N        0.91885    0.93459    0.12071    1.000
    Si5479   Si       0.89521    0.93982    0.15580    1.000
    Si5480   Si       0.91152    0.82898    0.31074    1.000
    Si5481   Si       0.89580    0.77431    0.35127    1.000
    N5482    N        0.92084    0.78834    0.31803    1.000
    Si5483   Si       0.92475    0.87979    0.25792    1.000
    N5484    N        0.92798    0.84914    0.34741    1.000
    Si5485   Si       0.91400    0.99356    0.25313    1.000
    N5486    N        0.88183    0.89281    0.26231    1.000
    N5487    N        0.90528    0.95471    0.27493    1.000
    Si5488   Si       0.91362    0.91352    0.35407    1.000
    N5489    N        0.91221    0.95649    0.35556    1.000
    Si5490   Si       0.88050    0.79026    0.41811    1.000
    N5491    N        0.89187    0.85479    0.40928    1.000
    N5492    N        0.90894    0.79630    0.38608    1.000
    Si5493   Si       0.92522    0.83726    0.38996    1.000
    Si5494   Si       0.89406    0.87344    0.44792    1.000
    N5495    N        0.89479    0.80499    0.45656    1.000
    N5496    N        0.89389    0.91469    0.43643    1.000
    N5497    N        0.87512    0.99144    0.48982    1.000
    N5498    N        0.89088    0.81815    0.57386    1.000
    Si5499   Si       0.90847    0.81048    0.61284    1.000
    N5500    N        0.90326    0.89360    0.56866    1.000
    Si5501   Si       0.90751    0.92136    0.53241    1.000
    Si5502   Si       0.90556    0.99445    0.52093    1.000
    N5503    N        0.89881    0.96198    0.54629    1.000
    Si5504   Si       0.88097    0.97386    0.58314    1.000
    N5505    N        0.88031    0.93948    0.61104    1.000
    N5506    N        0.87169    0.91563    0.50582    1.000
    N5507    N        0.89780    0.00792    0.60015    1.000
    N5508    N        0.92773    0.85007    0.62030    1.000
    N5509    N        0.88352    0.78650    0.63868    1.000
    N5510    N        0.90282    0.84498    0.68927    1.000
    Si5511   Si       0.90466    0.86651    0.65222    1.000
    N5512    N        0.88154    0.88064    0.74309    1.000
    Si5513   Si       0.90223    0.97699    0.70908    1.000
    Si5514   Si       0.88625    0.93890    0.65349    1.000
    N5515    N        0.89110    0.97952    0.66716    1.000
    N5516    N        0.91614    0.90688    0.66399    1.000
    Si5517   Si       0.89092    0.87222    0.78736    1.000
    Si5518   Si       0.89657    0.79648    0.75918    1.000
    N5519    N        0.92641    0.82991    0.75574    1.000
    N5520    N        0.92798    0.86262    0.80966    1.000
    N5521    N        0.89712    0.76608    0.86756    1.000
    N5522    N        0.93155    0.82581    0.86904    1.000
    N5523    N        0.92155    0.76610    0.74448    1.000
    N5524    N        0.89735    0.98881    0.80444    1.000
    N5525    N        0.88459    0.91677    0.79194    1.000
    Si5526   Si       0.87740    0.94910    0.81778    1.000
    N5527    N        0.87567    0.93886    0.86005    1.000
    Si5528   Si       0.86931    0.92270    0.75053    1.000
    N5529    N        0.88038    0.86776    0.87549    1.000
    Si5530   Si       0.90631    0.84403    0.89971    1.000
    N5531    N        0.88325    0.81430    0.91756    1.000
    N5532    N        0.87880    0.87016    0.95393    1.000
    Si5533   Si       0.92077    0.87834    0.95703    1.000
    N5534    N        0.87795    0.81595    0.99385    1.000
    N5535    N        0.87608    0.97049    0.91997    1.000
    Si5536   Si       0.89487    0.97138    0.88261    1.000
    Si5537   Si       0.89083    0.97657    0.95932    1.000
    N5538    N        0.87977    0.93982    0.97979    1.000
    Si5539   Si       0.96292    0.07129    0.06661    1.000
    N5540    N        0.96632    0.04924    0.10232    1.000
    Si5541   Si       0.97450    0.01743    0.01285    1.000
    N5542    N        0.98072    0.11202    0.06612    1.000
    N5543    N        0.93539    0.01288    0.03064    1.000
    N5544    N        0.93961    0.14804    0.01865    1.000
    Si5545   Si       0.95513    0.14688    0.05981    1.000
    N5546    N        0.96776    0.21684    0.01672    1.000
    Si5547   Si       0.96060    0.21830    0.05864    1.000
    N5548    N        0.97688    0.18009    0.07429    1.000
    N5549    N        0.98474    0.25213    0.07214    1.000
    Si5550   Si       0.98084    0.18336    0.11749    1.000
    Si5551   Si       0.94206    0.01830    0.12164    1.000
    N5552    N        0.97186    0.09055    0.15734    1.000
    Si5553   Si       0.94566    0.06588    0.18338    1.000
    N5554    N        0.97098    0.05392    0.21419    1.000
    Si5555   Si       0.97807    0.01107    0.22033    1.000
    Si5556   Si       0.94069    0.19566    0.17720    1.000
    N5557    N        0.94490    0.23727    0.18780    1.000
    N5558    N        0.96232    0.15977    0.18710    1.000
    N5559    N        0.94631    0.18452    0.24193    1.000
    Si5560   Si       0.97033    0.15000    0.23086    1.000
    N5561    N        0.94249    0.19542    0.13362    1.000
    Si5562   Si       0.96549    0.10846    0.28897    1.000
    N5563    N        0.93762    0.08883    0.31494    1.000
    N5564    N        0.94593    0.11954    0.24952    1.000
    N5565    N        0.92995    0.02236    0.28383    1.000
    Si5566   Si       0.97145    0.00987    0.28870    1.000
    Si5567   Si       0.97841    0.22502    0.33675    1.000
    Si5568   Si       0.97268    0.21551    0.25361    1.000
    N5569    N        0.94493    0.24865    0.26108    1.000
    N5570    N        0.95114    0.19923    0.36117    1.000
    N5571    N        0.98584    0.21033    0.29665    1.000
    N5572    N        0.98809    0.13875    0.31089    1.000
    N5573    N        0.96520    0.12093    0.37056    1.000
    Si5574   Si       0.96664    0.09575    0.40869    1.000
    N5575    N        0.96230    0.05353    0.39968    1.000
    N5576    N        0.94042    0.10775    0.44256    1.000
    Si5577   Si       0.94670    0.11989    0.48454    1.000
    Si5578   Si       0.98732    0.02064    0.40431    1.000
    Si5579   Si       0.98405    0.16765    0.46964    1.000
    Si5580   Si       0.96069    0.16438    0.38762    1.000
    N5581    N        0.93965    0.23871    0.44568    1.000
    N5582    N        0.98442    0.16647    0.42356    1.000
    Si5583   Si       0.97022    0.23627    0.48073    1.000
    N5584    N        0.94265    0.16470    0.48663    1.000
    Si5585   Si       0.94282    0.10142    0.56490    1.000
    N5586    N        0.96535    0.01591    0.57831    1.000
    N5587    N        0.93034    0.10185    0.52030    1.000
    N5588    N        0.98495    0.10531    0.56688    1.000
    N5589    N        0.95571    0.22277    0.58984    1.000
    N5590    N        0.94299    0.22836    0.51386    1.000
    Si5591   Si       0.95230    0.24539    0.55416    1.000
    N5592    N        0.98060    0.16222    0.61356    1.000
    Si5593   Si       0.99025    0.20422    0.60889    1.000
    N5594    N        0.94306    0.07220    0.71061    1.000
    Si5595   Si       0.95175    0.03842    0.73775    1.000
    Si5596   Si       0.94537    0.11230    0.69142    1.000
    N5597    N        0.98782    0.11548    0.69622    1.000
    N5598    N        0.99004    0.22362    0.64890    1.000
    Si5599   Si       0.94128    0.14762    0.62034    1.000
    Si5600   Si       0.98422    0.20330    0.68679    1.000
    N5601    N        0.95093    0.19880    0.71504    1.000
    N5602    N        0.95299    0.09082    0.82251    1.000
    Si5603   Si       0.98073    0.05752    0.82894    1.000
    N5604    N        0.95692    0.02227    0.83395    1.000
    Si5605   Si       0.93888    0.11399    0.85578    1.000
    N5606    N        0.93234    0.04684    0.77569    1.000
    N5607    N        0.94997    0.24440    0.77083    1.000
    Si5608   Si       0.97417    0.22332    0.81622    1.000
    Si5609   Si       0.94087    0.18514    0.85689    1.000
    Si5610   Si       0.97578    0.21544    0.74953    1.000
    N5611    N        0.98351    0.19752    0.85227    1.000
    N5612    N        0.93209    0.22255    0.83070    1.000
    Si5613   Si       0.95274    0.01930    0.94445    1.000
    N5614    N        0.97127    0.02342    0.90597    1.000
    N5615    N        0.96843    0.12831    0.88555    1.000
    Si5616   Si       0.94641    0.00823    0.87271    1.000
    Si5617   Si       0.94300    0.24247    0.99111    1.000
    Si5618   Si       0.93898    0.22532    0.91798    1.000
    N5619    N        0.93574    0.18624    0.89903    1.000
    N5620    N        0.98165    0.23277    0.91423    1.000
    N5621    N        0.97604    0.16115    0.95452    1.000
    Si5622   Si       0.97577    0.14404    0.99398    1.000
    Si5623   Si       0.94903    0.15064    0.92007    1.000
    Si5624   Si       0.95638    0.33290    0.09877    1.000
    N5625    N        0.95066    0.32211    0.01708    1.000
    N5626    N        0.93906    0.37012    0.08570    1.000
    Si5627   Si       0.93264    0.35805    0.99747    1.000
    Si5628   Si       0.98403    0.30506    0.99673    1.000
    N5629    N        0.95454    0.44301    0.07001    1.000
    Si5630   Si       0.95765    0.40010    0.05976    1.000
    N5631    N        0.95079    0.47873    0.01074    1.000
    Si5632   Si       0.96255    0.45007    0.11387    1.000
    N5633    N        0.96340    0.34214    0.14109    1.000
    N5634    N        0.97011    0.29963    0.20699    1.000
    Si5635   Si       0.96065    0.32091    0.24246    1.000
    Si5636   Si       0.98563    0.31576    0.16984    1.000
    Si5637   Si       0.98283    0.25940    0.19566    1.000
    Si5638   Si       0.98883    0.49998    0.16900    1.000
    Si5639   Si       0.97763    0.48364    0.23256    1.000
    N5640    N        0.98558    0.46093    0.19479    1.000
    N5641    N        0.98053    0.41306    0.12077    1.000
    N5642    N        0.96495    0.39448    0.18746    1.000
    Si5643   Si       0.95531    0.38565    0.14480    1.000
    Si5644   Si       0.93683    0.38728    0.21862    1.000
    N5645    N        0.95976    0.31172    0.28385    1.000
    N5646    N        0.95596    0.33070    0.34769    1.000
    Si5647   Si       0.94022    0.27562    0.29623    1.000
    Si5648   Si       0.97953    0.33946    0.31068    1.000
    N5649    N        0.95702    0.26196    0.33280    1.000
    N5650    N        0.98520    0.38129    0.30186    1.000
    Si5651   Si       0.95349    0.29019    0.36599    1.000
    Si5652   Si       0.96046    0.40767    0.32332    1.000
    N5653    N        0.95738    0.44851    0.30594    1.000
    N5654    N        0.97709    0.41211    0.36258    1.000
    N5655    N        0.95283    0.41204    0.25001    1.000
    Si5656   Si       0.92959    0.44515    0.27165    1.000
    N5657    N        0.92579    0.48930    0.35649    1.000
    N5658    N        0.93747    0.48081    0.24992    1.000
    N5659    N        0.93531    0.30469    0.46327    1.000
    Si5660   Si       0.97124    0.31257    0.48507    1.000
    N5661    N        0.97587    0.29111    0.40461    1.000
    Si5662   Si       0.93873    0.27976    0.42809    1.000
    Si5663   Si       0.94932    0.47719    0.39000    1.000
    Si5664   Si       0.95566    0.40315    0.40098    1.000
    N5665    N        0.95259    0.48897    0.48067    1.000
    N5666    N        0.95660    0.42123    0.49091    1.000
    N5667    N        0.93338    0.44001    0.40566    1.000
    N5668    N        0.98932    0.40089    0.42863    1.000
    N5669    N        0.96531    0.32743    0.59694    1.000
    N5670    N        0.96772    0.32703    0.52803    1.000
    Si5671   Si       0.93514    0.35402    0.53268    1.000
    N5672    N        0.94400    0.39200    0.55254    1.000
    Si5673   Si       0.97162    0.41907    0.53437    1.000
    N5674    N        0.97609    0.44562    0.60831    1.000
    N5675    N        0.96055    0.45948    0.54369    1.000
    Si5676   Si       0.97611    0.47861    0.57858    1.000
    Si5677   Si       0.93046    0.46548    0.50997    1.000
    N5678    N        0.95922    0.34809    0.66952    1.000
    Si5679   Si       0.98082    0.34543    0.63159    1.000
    N5680    N        0.96503    0.28677    0.66502    1.000
    Si5681   Si       0.96309    0.31454    0.69837    1.000
    N5682    N        0.93333    0.30135    0.72660    1.000
    N5683    N        0.93602    0.45416    0.73952    1.000
    N5684    N        0.95803    0.48330    0.67967    1.000
    Si5685   Si       0.95933    0.44651    0.70439    1.000
    N5686    N        0.94440    0.41844    0.67574    1.000
    Si5687   Si       0.94549    0.43361    0.63477    1.000
    N5688    N        0.94654    0.30864    0.84864    1.000
    N5689    N        0.97496    0.31101    0.78622    1.000
    Si5690   Si       0.94331    0.28877    0.76814    1.000
    N5691    N        0.97941    0.38068    0.75826    1.000
    N5692    N        0.93348    0.36262    0.80879    1.000
    Si5693   Si       0.98357    0.30228    0.82791    1.000
    Si5694   Si       0.93993    0.38405    0.77205    1.000
    Si5695   Si       0.93634    0.39997    0.83151    1.000
    Si5696   Si       0.95697    0.45871    0.78327    1.000
    N5697    N        0.94932    0.47638    0.82790    1.000
    N5698    N        0.97691    0.40694    0.84477    1.000
    Si5699   Si       0.98247    0.48842    0.85076    1.000
    N5700    N        0.96749    0.50142    0.76869    1.000
    N5701    N        0.96994    0.26978    0.97279    1.000
    Si5702   Si       0.97603    0.34780    0.93675    1.000
    Si5703   Si       0.94904    0.29977    0.89264    1.000
    N5704    N        0.93814    0.33148    0.92034    1.000
    N5705    N        0.95681    0.37710    0.96507    1.000
    N5706    N        0.96981    0.48298    0.89374    1.000
    N5707    N        0.98657    0.44869    0.95867    1.000
    N5708    N        0.94816    0.41536    0.91083    1.000
    Si5709   Si       0.95453    0.41892    0.95524    1.000
    Si5710   Si       0.98395    0.40365    0.88997    1.000
    Si5711   Si       0.97682    0.58908    0.05011    1.000
    N5712    N        0.93531    0.58085    0.03694    1.000
    N5713    N        0.97890    0.57929    0.09202    1.000
    N5714    N        0.97981    0.63146    0.05014    1.000
    Si5715   Si       0.97540    0.65364    0.08891    1.000
    N5716    N        0.94890    0.69832    0.01963    1.000
    Si5717   Si       0.95622    0.73479    0.08813    1.000
    Si5718   Si       0.97195    0.66146    0.01755    1.000
    Si5719   Si       0.96245    0.73827    0.01060    1.000
    N5720    N        0.98061    0.69627    0.08668    1.000
    N5721    N        0.93571    0.64751    0.11060    1.000
    N5722    N        0.96645    0.53931    0.15291    1.000
    Si5723   Si       0.95051    0.61450    0.20254    1.000
    N5724    N        0.98597    0.51961    0.21071    1.000
    N5725    N        0.98823    0.59581    0.19040    1.000
    Si5726   Si       0.93002    0.54883    0.17580    1.000
    Si5727   Si       0.96558    0.70932    0.20044    1.000
    N5728    N        0.96382    0.64171    0.23057    1.000
    N5729    N        0.96883    0.68439    0.16508    1.000
    N5730    N        0.94266    0.74411    0.12861    1.000
    N5731    N        0.97148    0.75142    0.19450    1.000
    Si5732   Si       0.94486    0.52190    0.33129    1.000
    N5733    N        0.95204    0.55066    0.36128    1.000
    N5734    N        0.98143    0.51473    0.31043    1.000
    N5735    N        0.96634    0.63650    0.30163    1.000
    N5736    N        0.97708    0.61517    0.36997    1.000
    N5737    N        0.98557    0.57169    0.25939    1.000
    Si5738   Si       0.95268    0.63905    0.34261    1.000
    Si5739   Si       0.94035    0.64260    0.26727    1.000
    N5740    N        0.95785    0.68078    0.35541    1.000
    N5741    N        0.95589    0.74760    0.26832    1.000
    N5742    N        0.96798    0.74806    0.34484    1.000
    Si5743   Si       0.94254    0.72014    0.36310    1.000
    Si5744   Si       0.98127    0.56282    0.44154    1.000
    N5745    N        0.97318    0.55855    0.48397    1.000
    N5746    N        0.94165    0.57227    0.42500    1.000
    Si5747   Si       0.98196    0.62959    0.41098    1.000
    N5748    N        0.93400    0.50763    0.41719    1.000
    Si5749   Si       0.93220    0.56645    0.49478    1.000
    N5750    N        0.94221    0.64188    0.42301    1.000
    N5751    N        0.94298    0.71575    0.40645    1.000
    Si5752   Si       0.96356    0.74046    0.43652    1.000
    N5753    N        0.93273    0.74758    0.46706    1.000
    Si5754   Si       0.95845    0.58082    0.55959    1.000
    N5755    N        0.96174    0.57704    0.60217    1.000
    N5756    N        0.93876    0.62060    0.55671    1.000
    Si5757   Si       0.95356    0.53671    0.61790    1.000
    N5758    N        0.94880    0.51106    0.58254    1.000
    N5759    N        0.92918    0.55658    0.53679    1.000
    N5760    N        0.96011    0.68389    0.58089    1.000
    Si5761   Si       0.94298    0.68894    0.54105    1.000
    Si5762   Si       0.96351    0.70569    0.61599    1.000
    N5763    N        0.98403    0.67959    0.52153    1.000
    N5764    N        0.93181    0.73139    0.54180    1.000
    Si5765   Si       0.94245    0.75573    0.50770    1.000
    Si5766   Si       0.98219    0.61108    0.61949    1.000
    Si5767   Si       0.98666    0.53068    0.74097    1.000
    N5768    N        0.95006    0.55479    0.73833    1.000
    N5769    N        0.94108    0.62761    0.74254    1.000
    N5770    N        0.92746    0.66137    0.68524    1.000
    N5771    N        0.98449    0.69757    0.65197    1.000
    Si5772   Si       0.96715    0.66185    0.66870    1.000
    N5773    N        0.95105    0.63892    0.63241    1.000
    Si5774   Si       0.98353    0.64243    0.73540    1.000
    N5775    N        0.98782    0.74951    0.72761    1.000
    N5776    N        0.95844    0.59311    0.79991    1.000
    Si5777   Si       0.93936    0.57258    0.83427    1.000
    N5778    N        0.96799    0.58182    0.86683    1.000
    Si5779   Si       0.93381    0.62561    0.78613    1.000
    Si5780   Si       0.93187    0.52888    0.76948    1.000
    N5781    N        0.96190    0.73661    0.78817    1.000
    Si5782   Si       0.97087    0.73573    0.83043    1.000
    Si5783   Si       0.96139    0.67290    0.84154    1.000
    N5784    N        0.95144    0.66421    0.79954    1.000
    Si5785   Si       0.96011    0.69650    0.77117    1.000
    N5786    N        0.93758    0.71047    0.84813    1.000
    N5787    N        0.93282    0.64646    0.86540    1.000
    N5788    N        0.95955    0.62932    0.99169    1.000
    N5789    N        0.97098    0.56281    0.96928    1.000
    N5790    N        0.95400    0.61752    0.92428    1.000
    Si5791   Si       0.97701    0.60674    0.96017    1.000
    Si5792   Si       0.96622    0.62192    0.88197    1.000
    Si5793   Si       0.93367    0.54283    0.95526    1.000
    N5794    N        0.97421    0.74093    0.96557    1.000
    Si5795   Si       0.93498    0.75907    0.95415    1.000
    N5796    N        0.97951    0.84963    0.09265    1.000
    Si5797   Si       0.93788    0.85073    0.07718    1.000
    N5798    N        0.95348    0.76234    0.05436    1.000
    N5799    N        0.93292    0.86903    0.99655    1.000
    Si5800   Si       0.94602    0.89966    0.02631    1.000
    N5801    N        0.95934    0.95418    0.07220    1.000
    N5802    N        0.94270    0.93832    0.00780    1.000
    Si5803   Si       0.95865    0.94590    0.11468    1.000
    Si5804   Si       0.93509    0.96964    0.03878    1.000
    Si5805   Si       0.96522    0.83613    0.13208    1.000
    Si5806   Si       0.95610    0.77240    0.16050    1.000
    N5807    N        0.96496    0.80281    0.23548    1.000
    N5808    N        0.95767    0.86797    0.15969    1.000
    Si5809   Si       0.98199    0.76301    0.23499    1.000
    N5810    N        0.98648    0.79915    0.14364    1.000
    N5811    N        0.98681    0.91961    0.20285    1.000
    N5812    N        0.94611    0.98166    0.22748    1.000
    N5813    N        0.96926    0.98478    0.13243    1.000
    Si5814   Si       0.95061    0.93949    0.21652    1.000
    Si5815   Si       0.95897    0.86865    0.32294    1.000
    N5816    N        0.94197    0.84928    0.28562    1.000
    Si5817   Si       0.97665    0.82860    0.26690    1.000
    Si5818   Si       0.95804    0.76921    0.30751    1.000
    N5819    N        0.93985    0.90737    0.31998    1.000
    N5820    N        0.97154    0.97063    0.30758    1.000
    Si5821   Si       0.94237    0.93844    0.29162    1.000
    N5822    N        0.95308    0.91347    0.25461    1.000
    N5823    N        0.97473    0.80710    0.47016    1.000
    N5824    N        0.96369    0.84379    0.41042    1.000
    N5825    N        0.97999    0.77400    0.41112    1.000
    Si5826   Si       0.93222    0.81905    0.47799    1.000
    N5827    N        0.92617    0.86193    0.47619    1.000
    N5828    N        0.98360    0.00593    0.44467    1.000
    Si5829   Si       0.93185    0.98488    0.38156    1.000
    N5830    N        0.93288    0.97002    0.42233    1.000
    Si5831   Si       0.93279    0.92816    0.42720    1.000
    Si5832   Si       0.95964    0.89063    0.48318    1.000
    N5833    N        0.96661    0.90631    0.44512    1.000
    Si5834   Si       0.97344    0.88582    0.40651    1.000
    Si5835   Si       0.93863    0.99847    0.45335    1.000
    N5836    N        0.94045    0.90781    0.38781    1.000
    N5837    N        0.97389    0.99246    0.37471    1.000
    N5838    N        0.95571    0.84953    0.55583    1.000
    N5839    N        0.93846    0.78467    0.59049    1.000
    Si5840   Si       0.94060    0.87524    0.58718    1.000
    Si5841   Si       0.97264    0.77835    0.61621    1.000
    N5842    N        0.93217    0.79577    0.51664    1.000
    Si5843   Si       0.93184    0.81386    0.55658    1.000
    N5844    N        0.94597    0.92043    0.51214    1.000
    N5845    N        0.97122    0.90622    0.59277    1.000
    Si5846   Si       0.97044    0.95800    0.51108    1.000
    N5847    N        0.94278    0.98727    0.49727    1.000
    N5848    N        0.96953    0.81175    0.70848    1.000
    N5849    N        0.95110    0.77310    0.65542    1.000
    Si5850   Si       0.97741    0.77343    0.69204    1.000
    Si5851   Si       0.93636    0.84063    0.71437    1.000
    N5852    N        0.95379    0.88073    0.71833    1.000
    Si5853   Si       0.94792    0.91398    0.68985    1.000
    N5854    N        0.93426    0.94863    0.71085    1.000
    Si5855   Si       0.97052    0.96586    0.73228    1.000
    N5856    N        0.98583    0.96595    0.62220    1.000
    N5857    N        0.99096    0.91602    0.67516    1.000
    Si5858   Si       0.95767    0.83798    0.78580    1.000
    N5859    N        0.96802    0.77197    0.85343    1.000
    Si5860   Si       0.94831    0.85775    0.84610    1.000
    Si5861   Si       0.96320    0.76917    0.75937    1.000
    N5862    N        0.98241    0.80098    0.78121    1.000
    N5863    N        0.98724    0.86961    0.77815    1.000
    N5864    N        0.98501    0.84081    0.83432    1.000
    N5865    N        0.99004    0.93329    0.75367    1.000
    N5866    N        0.96506    0.99666    0.76340    1.000
    Si5867   Si       0.96848    0.93773    0.86242    1.000
    N5868    N        0.95606    0.89496    0.86815    1.000
    Si5869   Si       0.93665    0.00743    0.79703    1.000
    Si5870   Si       0.98660    0.89416    0.74355    1.000
    N5871    N        0.94128    0.85304    0.92728    1.000
    Si5872   Si       0.97214    0.82116    0.93110    1.000
    N5873    N        0.94653    0.78536    0.92157    1.000
    Si5874   Si       0.93463    0.78307    0.87774    1.000
    N5875    N        0.93894    0.91408    0.94100    1.000
    N5876    N        0.93793    0.96555    0.87328    1.000
    Si5877   Si       0.95966    0.88896    0.91124    1.000
    N5878    N        0.93329    0.98381    0.95752    1.000
    Si5879   Si       0.95282    0.94575    0.96576    1.000
