# CIF file generated by openbabel 3.1.1, see https://openbabel.org
data_I
_chemical_name_common '3.01-39.aims'
_cell_length_a 39.8643
_cell_length_b 39.8643
_cell_length_c 39.8643
_cell_angle_alpha 90
_cell_angle_beta 90
_cell_angle_gamma 90
loop_
    _atom_site_label
    _atom_site_type_symbol
    _atom_site_fract_x
    _atom_site_fract_y
    _atom_site_fract_z
    _atom_site_occupancy
    N0       N        0.01949    0.02607    0.08704    1.000
    Si1      Si       0.05494    0.04573    0.10387    1.000
    N2       N        0.08063    0.01839    0.08156    1.000
    Si3      Si       0.99398    0.02102    0.05289    1.000
    N4       N        0.10503    0.01386    0.01614    1.000
    Si5      Si       0.11694    0.01497    0.05880    1.000
    Si6      Si       0.18106    0.03203    0.05884    1.000
    N7       N        0.14198    0.04777    0.06863    1.000
    Si8      Si       0.17937    0.04466    0.22753    1.000
    N9       N        0.16907    0.03415    0.18596    1.000
    Si10     Si       0.02763    0.06465    0.17936    1.000
    N11      N        0.01719    0.02920    0.20019    1.000
    N12      N        0.05481    0.05545    0.14622    1.000
    N13      N        0.20830    0.06597    0.04839    1.000
    Si14     Si       0.14836    0.06749    0.16908    1.000
    N15      N        0.12738    0.06298    0.13134    1.000
    N16      N        0.08185    0.03350    0.30590    1.000
    Si17     Si       0.07309    0.02993    0.34906    1.000
    Si18     Si       0.01002    0.05562    0.35925    1.000
    N19      N        0.02805    0.02194    0.27345    1.000
    Si20     Si       0.10587    0.03758    0.26600    1.000
    N21      N        0.03226    0.01848    0.35949    1.000
    Si22     Si       0.04370    0.06586    0.28218    1.000
    N23      N        0.15137    0.04034    0.26225    1.000
    N24      N        0.15840    0.04409    0.32999    1.000
    N25      N        0.21192    0.01787    0.30137    1.000
    Si26     Si       0.14213    0.02107    0.36593    1.000
    Si27     Si       0.16885    0.01539    0.29802    1.000
    Si28     Si       0.08927    0.04204    0.46883    1.000
    N29      N        0.01372    0.06081    0.47322    1.000
    N30      N        0.07159    0.06027    0.43274    1.000
    N31      N        0.00691    0.06620    0.40150    1.000
    Si32     Si       0.23851    0.01099    0.47844    1.000
    N33      N        0.21512    0.01754    0.44032    1.000
    N34      N        0.13798    0.05714    0.39315    1.000
    Si35     Si       0.23130    0.05170    0.41752    1.000
    N36      N        0.21190    0.06458    0.38222    1.000
    Si37     Si       0.02616    0.04349    0.51177    1.000
    N38      N        0.00219    0.01785    0.53642    1.000
    N39      N        0.06429    0.02282    0.50122    1.000
    N40      N        0.22998    0.04275    0.50769    1.000
    N41      N        0.16788    0.04000    0.54317    1.000
    Si42     Si       0.13169    0.04334    0.56848    1.000
    N43      N        0.12658    0.03917    0.61132    1.000
    Si44     Si       0.22418    0.01372    0.58773    1.000
    N45      N        0.23252    0.05311    0.57582    1.000
    Si46     Si       0.19539    0.06519    0.52189    1.000
    Si47     Si       0.01499    0.04236    0.62287    1.000
    N48      N        0.09931    0.02603    0.67224    1.000
    Si49     Si       0.10446    0.02478    0.71538    1.000
    N50      N        0.04041    0.05988    0.65276    1.000
    N51      N        0.07849    0.05850    0.72071    1.000
    N52      N        0.01069    0.05918    0.71389    1.000
    Si53     Si       0.07662    0.06561    0.67657    1.000
    N54      N        0.21372    0.01513    0.63115    1.000
    Si55     Si       0.18472    0.01427    0.73719    1.000
    Si56     Si       0.18497    0.01957    0.66153    1.000
    N57      N        0.20852    0.02073    0.70082    1.000
    N58      N        0.16901    0.06003    0.66199    1.000
    N59      N        0.14351    0.03199    0.73200    1.000
    N60      N        0.04447    0.03531    0.77278    1.000
    N61      N        0.08952    0.02862    0.82672    1.000
    N62      N        0.01702    0.02524    0.83777    1.000
    Si63     Si       0.05126    0.01496    0.81103    1.000
    Si64     Si       0.09756    0.01795    0.86812    1.000
    Si65     Si       0.11424    0.06453    0.82306    1.000
    N66      N        0.19152    0.04579    0.76907    1.000
    Si67     Si       0.21983    0.04637    0.79937    1.000
    N68      N        0.14079    0.05615    0.85687    1.000
    Si69     Si       0.17407    0.02699    0.85890    1.000
    N70      N        0.21021    0.05289    0.84264    1.000
    Si71     Si       0.15376    0.06472    0.75577    1.000
    Si72     Si       0.05583    0.04816    0.92525    1.000
    N73      N        0.06828    0.02601    0.96168    1.000
    N74      N        0.07923    0.05202    0.88977    1.000
    Si75     Si       0.10747    0.03733    0.97965    1.000
    N76      N        0.01682    0.03515    0.91141    1.000
    Si77     Si       0.02016    0.01064    0.87591    1.000
    N78      N        0.21078    0.04458    0.96494    1.000
    N79      N        0.24228    0.04600    0.90029    1.000
    Si80     Si       0.17259    0.06298    0.95848    1.000
    N81      N        0.14403    0.02829    0.96006    1.000
    N82      N        0.24124    0.00846    0.78991    1.000
    N83      N        0.07912    0.08370    0.09178    1.000
    N84      N        0.03223    0.08168    0.01122    1.000
    Si85     Si       0.06001    0.12426    0.09993    1.000
    N86      N        0.23771    0.10478    0.09525    1.000
    Si87     Si       0.12462    0.08018    0.09221    1.000
    Si88     Si       0.20549    0.09837    0.02026    1.000
    N89      N        0.14692    0.11743    0.09011    1.000
    N90      N        0.98961    0.08056    0.16466    1.000
    N91      N        0.08214    0.12071    0.14506    1.000
    Si92     Si       0.08798    0.09766    0.21868    1.000
    Si93     Si       0.09181    0.07988    0.14886    1.000
    N94      N        0.04740    0.09974    0.19991    1.000
    N95      N        0.11072    0.07723    0.19013    1.000
    Si96     Si       0.01912    0.12125    0.23012    1.000
    N97      N        0.16862    0.10601    0.16136    1.000
    N98      N        0.19745    0.08550    0.22890    1.000
    Si99     Si       0.20145    0.10929    0.19174    1.000
    Si100    Si       0.98833    0.07274    0.00630    1.000
    Si101    Si       0.02442    0.12645    0.02035    1.000
    Si102    Si       0.06013    0.10097    0.34317    1.000
    N103     N        0.01389    0.09145    0.26086    1.000
    N104     N        0.02895    0.07538    0.32458    1.000
    N105     N        0.08239    0.12229    0.31416    1.000
    N106     N        0.08056    0.07025    0.36563    1.000
    N107     N        0.08121    0.07296    0.25682    1.000
    Si108    Si       0.22694    0.09400    0.26078    1.000
    N109     N        0.18013    0.10436    0.34800    1.000
    Si110    Si       0.22259    0.08785    0.34604    1.000
    N111     N        0.21465    0.08478    0.30037    1.000
    Si112    Si       0.16857    0.08283    0.31021    1.000
    N113     N        0.14525    0.11723    0.29748    1.000
    Si114    Si       0.10008    0.07758    0.40369    1.000
    Si115    Si       0.03026    0.07444    0.43611    1.000
    N116     N        0.03431    0.12189    0.43800    1.000
    N117     N        0.09999    0.12083    0.41019    1.000
    N118     N        0.10479    0.07654    0.49170    1.000
    Si119    Si       0.17203    0.08364    0.38536    1.000
    N120     N        0.23468    0.08460    0.44453    1.000
    N121     N        0.17527    0.07925    0.48587    1.000
    N122     N        0.17009    0.10754    0.42275    1.000
    Si123    Si       0.19585    0.10289    0.45606    1.000
    Si124    Si       0.13920    0.10309    0.49500    1.000
    Si125    Si       0.98900    0.11570    0.28885    1.000
    Si126    Si       0.08220    0.08976    0.52548    1.000
    Si127    Si       0.01765    0.09969    0.55952    1.000
    N128     N        0.04106    0.07924    0.53050    1.000
    N129     N        0.01128    0.06976    0.59103    1.000
    N130     N        0.11146    0.08052    0.55732    1.000
    N131     N        0.15755    0.10015    0.60406    1.000
    N132     N        0.21801    0.10137    0.53837    1.000
    Si133    Si       0.13638    0.11562    0.56868    1.000
    Si134    Si       0.23357    0.09589    0.58030    1.000
    N135     N        0.22712    0.11717    0.61605    1.000
    N136     N        0.15580    0.12439    0.53153    1.000
    Si137    Si       0.01566    0.08402    0.67917    1.000
    N138     N        0.05069    0.11004    0.68774    1.000
    N139     N        0.10329    0.09054    0.65379    1.000
    N140     N        0.23210    0.08529    0.69680    1.000
    Si141    Si       0.18816    0.08673    0.69030    1.000
    Si142    Si       0.13827    0.07461    0.63382    1.000
    N143     N        0.16609    0.09613    0.72669    1.000
    N144     N        0.08304    0.09476    0.83002    1.000
    N145     N        0.05787    0.10776    0.75737    1.000
    Si146    Si       0.06569    0.11909    0.79902    1.000
    N147     N        0.99144    0.09318    0.77575    1.000
    N148     N        0.13390    0.08041    0.78876    1.000
    N149     N        0.14740    0.12335    0.84219    1.000
    Si150    Si       0.13569    0.12351    0.80234    1.000
    Si151    Si       0.07953    0.09388    0.87302    1.000
    N152     N        0.04146    0.11605    0.87841    1.000
    Si153    Si       0.06088    0.09351    0.98079    1.000
    N154     N        0.04838    0.08810    0.93814    1.000
    N155     N        0.10367    0.08196    0.98514    1.000
    N156     N        0.11082    0.11400    0.89672    1.000
    N157     N        0.17201    0.09215    0.99052    1.000
    Si158    Si       0.15112    0.09675    0.88321    1.000
    Si159    Si       0.13352    0.11230    0.99000    1.000
    N160     N        0.16632    0.07518    0.91802    1.000
    Si161    Si       0.04045    0.12649    0.92108    1.000
    Si162    Si       0.04230    0.06848    0.74546    1.000
    N163     N        0.08240    0.16226    0.09787    1.000
    Si164    Si       0.01923    0.17164    0.06766    1.000
    N165     N        0.00456    0.17244    0.02349    1.000
    N166     N        0.03857    0.13278    0.06088    1.000
    N167     N        0.23741    0.17610    0.07802    1.000
    N168     N        0.19515    0.13731    0.03716    1.000
    Si169    Si       0.23130    0.14644    0.10959    1.000
    N170     N        0.12986    0.14100    0.02264    1.000
    Si171    Si       0.15672    0.14238    0.05680    1.000
    Si172    Si       0.20524    0.17831    0.04868    1.000
    N173     N        0.16608    0.18423    0.06738    1.000
    Si174    Si       0.08254    0.16904    0.22617    1.000
    N175     N        0.06979    0.17086    0.18405    1.000
    N176     N        0.00398    0.14381    0.19184    1.000
    Si177    Si       0.08957    0.16510    0.14252    1.000
    Si178    Si       0.04316    0.13407    0.17118    1.000
    N179     N        0.10695    0.13355    0.23413    1.000
    N180     N        0.02518    0.13211    0.12910    1.000
    N181     N        0.19552    0.16077    0.12843    1.000
    Si182    Si       0.16060    0.13485    0.13095    1.000
    N183     N        0.13334    0.16866    0.14152    1.000
    N184     N        0.21562    0.15006    0.19786    1.000
    Si185    Si       0.19940    0.18712    0.21434    1.000
    N186     N        0.04489    0.15510    0.24521    1.000
    Si187    Si       0.02359    0.15994    0.34882    1.000
    N188     N        0.01299    0.14984    0.30810    1.000
    Si189    Si       0.09290    0.16397    0.32861    1.000
    Si190    Si       0.01036    0.17276    0.26927    1.000
    N191     N        0.10434    0.17366    0.28832    1.000
    N192     N        0.04168    0.12878    0.37021    1.000
    Si193    Si       0.10806    0.12954    0.28012    1.000
    N194     N        0.22351    0.18682    0.38392    1.000
    Si195    Si       0.22224    0.16504    0.28467    1.000
    N196     N        0.19372    0.16659    0.32015    1.000
    Si197    Si       0.16060    0.14131    0.33186    1.000
    N198     N        0.12901    0.16458    0.35041    1.000
    Si199    Si       0.22935    0.16572    0.34667    1.000
    N200     N        0.19070    0.17955    0.25566    1.000
    N201     N        0.01842    0.17538    0.48011    1.000
    Si202    Si       0.06102    0.13906    0.40869    1.000
    Si203    Si       0.00349    0.14118    0.45865    1.000
    N204     N        0.05468    0.18209    0.41563    1.000
    N205     N        0.20974    0.13945    0.47992    1.000
    N206     N        0.13278    0.13848    0.47147    1.000
    N207     N        0.15958    0.17437    0.41276    1.000
    Si208    Si       0.13977    0.13903    0.42727    1.000
    N209     N        0.99055    0.18434    0.36052    1.000
    Si210    Si       0.11081    0.16214    0.49883    1.000
    Si211    Si       0.07871    0.15303    0.55849    1.000
    N212     N        0.08976    0.13354    0.52293    1.000
    Si213    Si       0.02688    0.15924    0.60369    1.000
    N214     N        0.04125    0.13423    0.57003    1.000
    N215     N        0.11308    0.14882    0.58444    1.000
    Si216    Si       0.24175    0.12662    0.70920    1.000
    Si217    Si       0.19809    0.13753    0.52255    1.000
    Si218    Si       0.12854    0.17753    0.61470    1.000
    N219     N        0.17090    0.16941    0.61621    1.000
    N220     N        0.20363    0.18171    0.53368    1.000
    Si221    Si       0.18608    0.12710    0.62319    1.000
    N222     N        0.05498    0.15490    0.63627    1.000
    N223     N        0.07363    0.16509    0.70209    1.000
    N224     N        0.00717    0.16907    0.68254    1.000
    Si225    Si       0.04811    0.13675    0.72464    1.000
    Si226    Si       0.04599    0.18137    0.67048    1.000
    Si227    Si       0.08375    0.12988    0.65876    1.000
    Si228    Si       0.16982    0.13673    0.74024    1.000
    N229     N        0.01632    0.15900    0.74720    1.000
    Si230    Si       0.15604    0.15794    0.67565    1.000
    N231     N        0.11952    0.15464    0.65192    1.000
    N232     N        0.20840    0.15120    0.72314    1.000
    N233     N        0.14222    0.16044    0.71696    1.000
    N234     N        0.18130    0.12317    0.66679    1.000
    Si235    Si       0.01954    0.14507    0.85604    1.000
    N236     N        0.09855    0.14923    0.79553    1.000
    Si237    Si       0.00200    0.13517    0.78305    1.000
    N238     N        0.03020    0.13640    0.81488    1.000
    N239     N        0.13447    0.17820    0.89439    1.000
    N240     N        0.23765    0.13744    0.80613    1.000
    N241     N        0.19131    0.17982    0.84447    1.000
    Si242    Si       0.20366    0.16297    0.80370    1.000
    N243     N        0.16980    0.14381    0.78155    1.000
    Si244    Si       0.16036    0.15785    0.86666    1.000
    Si245    Si       0.23055    0.18456    0.86799    1.000
    N246     N        0.05015    0.13604    0.98406    1.000
    N247     N        0.99952    0.14068    0.92623    1.000
    N248     N        0.06944    0.15888    0.92654    1.000
    Si249    Si       0.05502    0.17481    0.96568    1.000
    Si250    Si       0.11199    0.14999    0.92106    1.000
    Si251    Si       0.12246    0.17381    0.99354    1.000
    N252     N        0.12695    0.14588    0.96015    1.000
    Si253    Si       0.21238    0.13533    0.92564    1.000
    N254     N        0.18071    0.13015    0.89511    1.000
    N255     N        0.20167    0.15853    0.95968    1.000
    Si256    Si       0.07745    0.20552    0.09322    1.000
    N257     N        0.03815    0.20943    0.07334    1.000
    Si258    Si       0.00421    0.21015    0.00081    1.000
    N259     N        0.03641    0.23875    0.01118    1.000
    N260     N        0.10951    0.22756    0.07349    1.000
    N261     N        0.21573    0.20527    0.01351    1.000
    Si262    Si       0.15192    0.22357    0.07971    1.000
    N263     N        0.16893    0.23120    0.11882    1.000
    N264     N        0.00983    0.20904    0.17332    1.000
    N265     N        0.09621    0.21112    0.23423    1.000
    Si266    Si       0.05263    0.21332    0.17048    1.000
    N267     N        0.07506    0.20951    0.13519    1.000
    N268     N        0.00318    0.20497    0.23964    1.000
    Si269    Si       0.99226    0.18502    0.20241    1.000
    Si270    Si       0.16899    0.19475    0.14298    1.000
    N271     N        0.17269    0.20388    0.18520    1.000
    Si272    Si       0.17189    0.24696    0.19467    1.000
    Si273    Si       0.04513    0.22522    0.32572    1.000
    N274     N        0.00884    0.21797    0.30349    1.000
    Si275    Si       0.10534    0.21543    0.27680    1.000
    N276     N        0.07347    0.23758    0.29623    1.000
    N277     N        0.05903    0.18822    0.34503    1.000
    Si278    Si       0.00156    0.23870    0.26598    1.000
    Si279    Si       0.98971    0.24360    0.44611    1.000
    Si280    Si       0.17376    0.20791    0.31511    1.000
    N281     N        0.16367    0.22071    0.35602    1.000
    N282     N        0.14532    0.22778    0.28853    1.000
    N283     N        0.20663    0.23210    0.29918    1.000
    N284     N        0.08531    0.19515    0.47844    1.000
    N285     N        0.03143    0.23374    0.45663    1.000
    Si286    Si       0.06276    0.21096    0.38418    1.000
    N287     N        0.10456    0.22179    0.39072    1.000
    Si288    Si       0.05074    0.19396    0.45611    1.000
    Si289    Si       0.11172    0.22697    0.49316    1.000
    N290     N        0.19210    0.23094    0.48544    1.000
    Si291    Si       0.19812    0.19158    0.42044    1.000
    N292     N        0.19183    0.23487    0.41970    1.000
    N293     N        0.23827    0.19364    0.44526    1.000
    Si294    Si       0.13670    0.19431    0.38023    1.000
    Si295    Si       0.23171    0.23170    0.46663    1.000
    N296     N        0.01497    0.23143    0.53477    1.000
    Si297    Si       0.04151    0.22018    0.56896    1.000
    N298     N        0.01759    0.20161    0.60107    1.000
    Si299    Si       0.99766    0.20765    0.50354    1.000
    N300     N        0.07334    0.19605    0.55815    1.000
    Si301    Si       0.17534    0.21155    0.52218    1.000
    N302     N        0.13677    0.19618    0.51086    1.000
    N303     N        0.23281    0.23974    0.55853    1.000
    N304     N        0.16503    0.24334    0.55030    1.000
    Si305    Si       0.09651    0.23390    0.65753    1.000
    N306     N        0.05633    0.22273    0.66510    1.000
    N307     N        0.00440    0.22594    0.71855    1.000
    N308     N        0.11651    0.21711    0.62249    1.000
    Si309    Si       0.10733    0.18687    0.71715    1.000
    N310     N        0.18538    0.19262    0.67167    1.000
    N311     N        0.11583    0.22579    0.69677    1.000
    Si312    Si       0.19565    0.20256    0.63011    1.000
    N313     N        0.18212    0.21623    0.73588    1.000
    Si314    Si       0.20650    0.19193    0.70951    1.000
    Si315    Si       0.15705    0.23924    0.70843    1.000
    N316     N        0.23725    0.19383    0.62424    1.000
    Si317    Si       0.99288    0.18349    0.72098    1.000
    N318     N        0.06942    0.21127    0.81994    1.000
    Si319    Si       0.05232    0.22169    0.86158    1.000
    N320     N        0.09953    0.20630    0.75593    1.000
    Si321    Si       0.10103    0.19207    0.79779    1.000
    Si322    Si       0.17205    0.21952    0.83458    1.000
    N323     N        0.22095    0.19966    0.78567    1.000
    N324     N        0.13621    0.20356    0.81795    1.000
    Si325    Si       0.20068    0.23654    0.77062    1.000
    N326     N        0.15328    0.20390    0.98940    1.000
    N327     N        0.01908    0.20102    0.96064    1.000
    N328     N        0.08663    0.22978    0.88577    1.000
    N329     N        0.08602    0.19627    0.98591    1.000
    N330     N        0.01783    0.24125    0.89487    1.000
    Si331    Si       0.02303    0.24092    0.93833    1.000
    Si332    Si       0.07320    0.23870    0.98642    1.000
    Si333    Si       0.23378    0.23729    0.92026    1.000
    Si334    Si       0.19482    0.19888    0.97569    1.000
    N335     N        0.16065    0.24293    0.87033    1.000
    Si336    Si       0.13081    0.22188    0.89284    1.000
    N337     N        0.20147    0.23003    0.94650    1.000
    N338     N        0.22506    0.22591    0.87798    1.000
    N339     N        0.02661    0.18592    0.86692    1.000
    N340     N        0.05926    0.27492    0.06599    1.000
    Si341    Si       0.09942    0.26627    0.05222    1.000
    N342     N        0.10639    0.25368    0.01160    1.000
    Si343    Si       0.99197    0.28868    0.11010    1.000
    N344     N        0.09731    0.28144    0.11944    1.000
    N345     N        0.99341    0.26317    0.07365    1.000
    Si346    Si       0.03043    0.24620    0.05391    1.000
    Si347    Si       0.06256    0.29929    0.10018    1.000
    Si348    Si       0.20643    0.27501    0.05927    1.000
    N349     N        0.20812    0.29113    0.09841    1.000
    N350     N        0.17065    0.25042    0.04810    1.000
    Si351    Si       0.14926    0.24313    0.00938    1.000
    N352     N        0.06215    0.25248    0.18750    1.000
    N353     N        0.03188    0.28969    0.13086    1.000
    Si354    Si       0.05413    0.29252    0.16844    1.000
    Si355    Si       0.09623    0.25090    0.21399    1.000
    Si356    Si       0.18514    0.27176    0.13168    1.000
    N357     N        0.17899    0.25148    0.23489    1.000
    N358     N        0.20431    0.26522    0.17215    1.000
    Si359    Si       0.12038    0.28820    0.15344    1.000
    Si360    Si       0.23231    0.29571    0.18533    1.000
    N361     N        0.13057    0.25880    0.18580    1.000
    N362     N        0.16000    0.30455    0.14566    1.000
    N363     N        0.09789    0.27629    0.25064    1.000
    Si364    Si       0.06382    0.27518    0.27629    1.000
    N365     N        0.02492    0.27174    0.25288    1.000
    N366     N        0.04802    0.24762    0.36337    1.000
    N367     N        0.99013    0.30076    0.32390    1.000
    N368     N        0.18168    0.29416    0.46079    1.000
    N369     N        0.16870    0.29541    0.28420    1.000
    Si370    Si       0.17732    0.25383    0.27601    1.000
    N371     N        0.21074    0.27657    0.36588    1.000
    Si372    Si       0.05851    0.28853    0.37542    1.000
    N373     N        0.06047    0.29711    0.48369    1.000
    N374     N        0.00302    0.28560    0.44694    1.000
    N375     N        0.07253    0.27785    0.41737    1.000
    Si376    Si       0.04470    0.27540    0.44935    1.000
    Si377    Si       0.11134    0.25718    0.41603    1.000
    Si378    Si       0.17056    0.25233    0.45445    1.000
    Si379    Si       0.18075    0.25080    0.38268    1.000
    N380     N        0.14474    0.27534    0.39429    1.000
    N381     N        0.12796    0.24691    0.45726    1.000
    Si382    Si       0.08325    0.28288    0.60829    1.000
    N383     N        0.09879    0.25652    0.52189    1.000
    Si384    Si       0.06891    0.28733    0.52426    1.000
    N385     N        0.03051    0.29569    0.54650    1.000
    N386     N        0.05432    0.25309    0.59890    1.000
    Si387    Si       0.99620    0.26881    0.54698    1.000
    Si388    Si       0.01434    0.24344    0.61871    1.000
    N389     N        0.11843    0.28654    0.58254    1.000
    Si390    Si       0.19677    0.25515    0.57771    1.000
    Si391    Si       0.13225    0.27176    0.54472    1.000
    N392     N        0.18946    0.29922    0.57802    1.000
    N393     N        0.22769    0.30184    0.51577    1.000
    N394     N        0.18839    0.24477    0.61789    1.000
    N395     N        0.00989    0.29122    0.72296    1.000
    N396     N        0.06797    0.26766    0.71838    1.000
    N397     N        0.00383    0.26381    0.65593    1.000
    N398     N        0.09151    0.27653    0.65100    1.000
    Si399    Si       0.02977    0.25025    0.69076    1.000
    Si400    Si       0.10177    0.24681    0.74235    1.000
    Si401    Si       0.08079    0.29890    0.68657    1.000
    N402     N        0.18745    0.26363    0.68661    1.000
    N403     N        0.22554    0.29967    0.63772    1.000
    N404     N        0.13910    0.26774    0.73601    1.000
    Si405    Si       0.18780    0.27916    0.64363    1.000
    Si406    Si       0.22612    0.25750    0.70591    1.000
    N407     N        0.08892    0.26679    0.78023    1.000
    N408     N        0.04705    0.26713    0.84402    1.000
    N409     N        0.02264    0.26136    0.78011    1.000
    Si410    Si       0.04467    0.28754    0.75063    1.000
    Si411    Si       0.05616    0.24961    0.80435    1.000
    Si412    Si       0.00895    0.27558    0.86823    1.000
    N413     N        0.18945    0.25266    0.80891    1.000
    N414     N        0.22184    0.28926    0.85681    1.000
    Si415    Si       0.19545    0.29558    0.81784    1.000
    N416     N        0.21720    0.26895    0.74669    1.000
    Si417    Si       0.09169    0.26070    0.91489    1.000
    N418     N        0.99411    0.27037    0.95005    1.000
    N419     N        0.06435    0.25548    0.94783    1.000
    N420     N        0.08271    0.29927    0.89286    1.000
    Si421    Si       0.17958    0.28182    0.87373    1.000
    N422     N        0.13022    0.24939    0.92817    1.000
    Si423    Si       0.16890    0.26183    0.94263    1.000
    N424     N        0.16598    0.27532    0.98380    1.000
    N425     N        0.17784    0.29446    0.91600    1.000
    Si426    Si       0.06942    0.30410    0.85236    1.000
    N427     N        0.05946    0.34145    0.09071    1.000
    N428     N        0.07068    0.35050    0.01603    1.000
    N429     N        0.00636    0.35522    0.03997    1.000
    Si430    Si       0.99263    0.34175    0.00011    1.000
    Si431    Si       0.11041    0.34197    0.03186    1.000
    N432     N        0.11765    0.30550    0.05279    1.000
    Si433    Si       0.22436    0.34653    0.04521    1.000
    N434     N        0.20147    0.31167    0.03442    1.000
    Si435    Si       0.23086    0.32572    0.11352    1.000
    N436     N        0.14270    0.34131    0.00143    1.000
    Si437    Si       0.17771    0.31541    0.99739    1.000
    N438     N        0.09207    0.31511    0.17319    1.000
    N439     N        0.02884    0.31858    0.19365    1.000
    Si440    Si       0.11264    0.34677    0.19369    1.000
    Si441    Si       0.00889    0.30489    0.22816    1.000
    Si442    Si       0.03613    0.36255    0.18474    1.000
    N443     N        0.13267    0.33376    0.22968    1.000
    N444     N        0.20758    0.33399    0.19211    1.000
    N445     N        0.20263    0.35627    0.12601    1.000
    Si446    Si       0.17790    0.34257    0.15891    1.000
    Si447    Si       0.01495    0.32792    0.30190    1.000
    Si448    Si       0.08754    0.32871    0.32386    1.000
    N449     N        0.01086    0.33899    0.25835    1.000
    N450     N        0.05483    0.31089    0.30248    1.000
    N451     N        0.09611    0.30213    0.35830    1.000
    N452     N        0.11711    0.33541    0.29110    1.000
    Si453    Si       0.17842    0.33180    0.30675    1.000
    N454     N        0.16625    0.32722    0.34773    1.000
    Si455    Si       0.21490    0.31945    0.35715    1.000
    N456     N        0.22278    0.33140    0.31413    1.000
    Si457    Si       0.13160    0.30346    0.26158    1.000
    N458     N        0.17323    0.36497    0.28027    1.000
    N459     N        0.02881    0.32035    0.37876    1.000
    N460     N        0.06531    0.34886    0.43353    1.000
    Si461    Si       0.07392    0.33791    0.47913    1.000
    Si462    Si       0.03126    0.35321    0.40775    1.000
    Si463    Si       0.10888    0.35554    0.43328    1.000
    N464     N        0.11687    0.33488    0.47039    1.000
    Si465    Si       0.15513    0.32049    0.48276    1.000
    N466     N        0.13275    0.34575    0.40001    1.000
    N467     N        0.23190    0.34648    0.45190    1.000
    Si468    Si       0.13568    0.31289    0.37370    1.000
    Si469    Si       0.22267    0.30741    0.47071    1.000
    N470     N        0.21232    0.35516    0.38437    1.000
    Si471    Si       0.04830    0.33199    0.56406    1.000
    N472     N        0.08405    0.32739    0.53471    1.000
    N473     N        0.05997    0.32180    0.60414    1.000
    N474     N        0.99284    0.34482    0.50487    1.000
    Si475    Si       0.12251    0.34726    0.53792    1.000
    Si476    Si       0.19117    0.32208    0.53596    1.000
    N477     N        0.14363    0.35194    0.57610    1.000
    Si478    Si       0.22136    0.32381    0.59904    1.000
    N479     N        0.21751    0.35010    0.55770    1.000
    Si480    Si       0.15050    0.31369    0.59451    1.000
    N481     N        0.14791    0.30862    0.52432    1.000
    N482     N        0.18442    0.35032    0.49680    1.000
    Si483    Si       0.05834    0.34836    0.63945    1.000
    Si484    Si       0.01281    0.32961    0.70222    1.000
    N485     N        0.04762    0.32498    0.67649    1.000
    N486     N        0.09966    0.35546    0.64355    1.000
    Si487    Si       0.14582    0.31018    0.72880    1.000
    Si488    Si       0.13420    0.33832    0.66136    1.000
    N489     N        0.11823    0.31930    0.69633    1.000
    N490     N        0.15798    0.31271    0.63724    1.000
    N491     N        0.18478    0.32982    0.72107    1.000
    N492     N        0.05701    0.32303    0.77320    1.000
    N493     N        0.04046    0.33413    0.84066    1.000
    Si494    Si       0.02725    0.34512    0.79954    1.000
    N495     N        0.10338    0.31559    0.82511    1.000
    Si496    Si       0.09841    0.30842    0.78423    1.000
    N497     N        0.20405    0.33594    0.96857    1.000
    N498     N        0.13011    0.33049    0.76315    1.000
    N499     N        0.19332    0.32312    0.78551    1.000
    Si500    Si       0.13364    0.34091    0.84223    1.000
    Si501    Si       0.16393    0.35556    0.77556    1.000
    Si502    Si       0.21444    0.31218    0.74739    1.000
    N503     N        0.16478    0.31143    0.84589    1.000
    N504     N        0.11410    0.35811    0.87694    1.000
    Si505    Si       0.02048    0.35041    0.87585    1.000
    Si506    Si       0.99597    0.31180    0.93646    1.000
    N507     N        0.01998    0.33672    0.96536    1.000
    Si508    Si       0.09026    0.33962    0.90772    1.000
    N509     N        0.09528    0.34639    0.95067    1.000
    Si510    Si       0.05934    0.35308    0.97395    1.000
    N511     N        0.00566    0.31275    0.89362    1.000
    Si512    Si       0.18900    0.33363    0.92803    1.000
    N513     N        0.22375    0.34160    0.90206    1.000
    Si514    Si       0.05680    0.37890    0.11264    1.000
    N515     N        0.04709    0.40116    0.07503    1.000
    N516     N        0.11612    0.37679    0.05714    1.000
    Si517    Si       0.04915    0.36469    0.05065    1.000
    Si518    Si       0.12718    0.41323    0.07277    1.000
    N519     N        0.19884    0.38167    0.05663    1.000
    Si520    Si       0.19492    0.38996    0.09985    1.000
    N521     N        0.15361    0.40298    0.10774    1.000
    Si522    Si       0.19143    0.41559    0.03145    1.000
    N523     N        0.00805    0.38453    0.20960    1.000
    Si524    Si       0.08343    0.40207    0.22909    1.000
    N525     N        0.08931    0.39941    0.13208    1.000
    N526     N        0.07650    0.37149    0.20051    1.000
    N527     N        0.02767    0.37334    0.14394    1.000
    N528     N        0.20363    0.39693    0.23152    1.000
    Si529    Si       0.13194    0.40111    0.14413    1.000
    N530     N        0.14020    0.36680    0.16734    1.000
    Si531    Si       0.22957    0.36434    0.21462    1.000
    Si532    Si       0.03913    0.38064    0.34704    1.000
    N533     N        0.05233    0.40014    0.25943    1.000
    Si534    Si       0.10831    0.40185    0.35328    1.000
    N535     N        0.08084    0.36647    0.34223    1.000
    N536     N        0.00687    0.36651    0.32285    1.000
    Si537    Si       0.01443    0.38105    0.25174    1.000
    N538     N        0.12014    0.40464    0.25232    1.000
    Si539    Si       0.19704    0.40030    0.27441    1.000
    N540     N        0.15126    0.39877    0.36322    1.000
    N541     N        0.23349    0.39595    0.29569    1.000
    Si542    Si       0.13361    0.36441    0.26234    1.000
    N543     N        0.03393    0.39139    0.38823    1.000
    Si544    Si       0.07888    0.40978    0.47295    1.000
    N545     N        0.11180    0.39672    0.44760    1.000
    N546     N        0.05859    0.37473    0.49357    1.000
    Si547    Si       0.14744    0.42013    0.44508    1.000
    N548     N        0.22434    0.41210    0.47871    1.000
    Si549    Si       0.17050    0.36957    0.39092    1.000
    Si550    Si       0.20364    0.37538    0.46582    1.000
    N551     N        0.17498    0.38757    0.43279    1.000
    Si552    Si       0.01112    0.39055    0.59592    1.000
    Si553    Si       0.02052    0.37485    0.51726    1.000
    N554     N        0.00405    0.41447    0.51160    1.000
    N555     N        0.02814    0.36966    0.56158    1.000
    N556     N        0.12451    0.39259    0.53645    1.000
    Si557    Si       0.22185    0.38843    0.57941    1.000
    Si558    Si       0.14439    0.39497    0.57597    1.000
    N559     N        0.18454    0.41070    0.57085    1.000
    N560     N        0.12704    0.41598    0.61015    1.000
    N561     N        0.21922    0.36567    0.61746    1.000
    N562     N        0.03667    0.38575    0.63032    1.000
    Si563    Si       0.02704    0.40584    0.73067    1.000
    Si564    Si       0.17771    0.37185    0.70609    1.000
    N565     N        0.01500    0.36520    0.72628    1.000
    N566     N        0.15151    0.37655    0.67231    1.000
    Si567    Si       0.11807    0.39538    0.64691    1.000
    N568     N        0.21766    0.38583    0.69357    1.000
    Si569    Si       0.23638    0.37550    0.65581    1.000
    N570     N        0.01740    0.38600    0.80630    1.000
    N571     N        0.08117    0.40272    0.82880    1.000
    Si572    Si       0.05118    0.41306    0.80156    1.000
    Si573    Si       0.10385    0.39950    0.86570    1.000
    N574     N        0.05913    0.41685    0.75794    1.000
    N575     N        0.13447    0.40671    0.97665    1.000
    Si576    Si       0.16380    0.41102    0.82318    1.000
    N577     N        0.15179    0.37006    0.81361    1.000
    N578     N        0.14637    0.41260    0.86373    1.000
    N579     N        0.24085    0.39903    0.76848    1.000
    N580     N        0.15926    0.38724    0.74444    1.000
    N581     N        0.05111    0.36290    0.90362    1.000
    N582     N        0.05338    0.39537    0.96414    1.000
    Si583    Si       0.05251    0.40354    0.92031    1.000
    N584     N        0.19902    0.40097    0.99105    1.000
    Si585    Si       0.22801    0.36993    0.97702    1.000
    Si586    Si       0.13451    0.36457    0.96358    1.000
    Si587    Si       0.16554    0.40188    0.90275    1.000
    N588     N        0.20644    0.40583    0.88739    1.000
    N589     N        0.15982    0.36630    0.92803    1.000
    N590     N        0.08318    0.42109    0.89619    1.000
    N591     N        0.09792    0.44465    0.08473    1.000
    Si592    Si       0.06224    0.43995    0.05921    1.000
    Si593    Si       0.00126    0.46721    0.03590    1.000
    N594     N        0.07660    0.42876    0.02018    1.000
    N595     N        0.00899    0.43069    0.00974    1.000
    N596     N        0.04151    0.47719    0.05190    1.000
    Si597    Si       0.11771    0.43333    0.00771    1.000
    N598     N        0.22355    0.44331    0.04150    1.000
    N599     N        0.15024    0.43038    0.03992    1.000
    Si600    Si       0.22786    0.47109    0.00626    1.000
    N601     N        0.22068    0.42424    0.10884    1.000
    Si602    Si       0.09148    0.44430    0.12990    1.000
    N603     N        0.06925    0.43881    0.20954    1.000
    N604     N        0.99491    0.45690    0.23132    1.000
    Si605    Si       0.04003    0.45417    0.23708    1.000
    N606     N        0.06656    0.47486    0.14763    1.000
    Si607    Si       0.07776    0.47795    0.18974    1.000
    N608     N        0.12752    0.44374    0.15647    1.000
    Si609    Si       0.21640    0.45553    0.13913    1.000
    Si610    Si       0.16168    0.46466    0.17408    1.000
    Si611    Si       0.22204    0.42596    0.20345    1.000
    N612     N        0.19333    0.43462    0.17308    1.000
    N613     N        0.23501    0.45907    0.22711    1.000
    N614     N        0.05977    0.46288    0.27501    1.000
    Si615    Si       0.01456    0.44836    0.35071    1.000
    Si616    Si       0.06544    0.42392    0.29533    1.000
    N617     N        0.10404    0.42277    0.31363    1.000
    N618     N        0.03817    0.42202    0.32821    1.000
    Si619    Si       0.17282    0.42903    0.34164    1.000
    N620     N        0.14977    0.46630    0.35084    1.000
    Si621    Si       0.13396    0.43328    0.28323    1.000
    N622     N        0.12448    0.47493    0.27300    1.000
    N623     N        0.21426    0.42793    0.35284    1.000
    N624     N        0.17471    0.42967    0.29649    1.000
    Si625    Si       0.01477    0.44069    0.47965    1.000
    N626     N        0.02259    0.45768    0.39332    1.000
    N627     N        0.09048    0.43175    0.38380    1.000
    Si628    Si       0.05127    0.42784    0.40537    1.000
    N629     N        0.04632    0.42620    0.44912    1.000
    N630     N        0.09414    0.44302    0.49697    1.000
    N631     N        0.14734    0.45571    0.41976    1.000
    Si632    Si       0.20248    0.44825    0.49200    1.000
    N633     N        0.16036    0.43332    0.48599    1.000
    Si634    Si       0.12031    0.46284    0.38580    1.000
    N635     N        0.20201    0.47683    0.45921    1.000
    N636     N        0.23969    0.47873    0.39260    1.000
    N637     N        0.00453    0.43369    0.58481    1.000
    Si638    Si       0.01601    0.47117    0.60211    1.000
    N639     N        0.03310    0.47329    0.50157    1.000
    Si640    Si       0.18061    0.45335    0.56322    1.000
    N641     N        0.21244    0.45875    0.53237    1.000
    N642     N        0.14053    0.46037    0.54770    1.000
    Si643    Si       0.13002    0.43252    0.51744    1.000
    N644     N        0.17955    0.47104    0.60252    1.000
    Si645    Si       0.14040    0.45751    0.61941    1.000
    N646     N        0.04472    0.45856    0.63179    1.000
    Si647    Si       0.10746    0.44725    0.68676    1.000
    N648     N        0.14480    0.44868    0.66296    1.000
    Si649    Si       0.04427    0.42064    0.65607    1.000
    N650     N        0.01664    0.41987    0.68934    1.000
    N651     N        0.17939    0.44942    0.72540    1.000
    Si652    Si       0.18051    0.46608    0.68486    1.000
    N653     N        0.11394    0.44484    0.72934    1.000
    N654     N        0.21525    0.45918    0.65814    1.000
    N655     N        0.08686    0.41470    0.67154    1.000
    N656     N        0.03460    0.45252    0.81004    1.000
    Si657    Si       0.99586    0.44933    0.78994    1.000
    N658     N        0.09873    0.47067    0.84581    1.000
    Si659    Si       0.07911    0.45462    0.75303    1.000
    N660     N        0.99240    0.42792    0.74958    1.000
    N661     N        0.16513    0.43637    0.92876    1.000
    N662     N        0.14677    0.43638    0.79220    1.000
    Si663    Si       0.12696    0.47039    0.81074    1.000
    N664     N        0.20482    0.42755    0.82485    1.000
    Si665    Si       0.14905    0.43010    0.74844    1.000
    Si666    Si       0.20888    0.44383    0.86524    1.000
    Si667    Si       0.17227    0.42768    0.97009    1.000
    N668     N        0.05640    0.46320    0.96074    1.000
    Si669    Si       0.08512    0.46403    0.88715    1.000
    Si670    Si       0.02505    0.46768    0.92881    1.000
    Si671    Si       0.04662    0.43079    0.98900    1.000
    N672     N        0.01497    0.42634    0.92141    1.000
    N673     N        0.11293    0.47988    0.91650    1.000
    N674     N        0.12029    0.47043    0.98598    1.000
    N675     N        0.18514    0.46254    0.99189    1.000
    N676     N        0.17757    0.47754    0.87595    1.000
    Si677    Si       0.15570    0.47491    0.91344    1.000
    Si678    Si       0.04004    0.51669    0.06973    1.000
    N679     N        0.01576    0.51138    0.10533    1.000
    N680     N        0.12642    0.53157    0.13117    1.000
    N681     N        0.17685    0.52332    0.07987    1.000
    Si682    Si       0.21709    0.51617    0.06992    1.000
    N683     N        0.22325    0.51181    0.02627    1.000
    N684     N        0.14767    0.52737    0.00921    1.000
    N685     N        0.18407    0.48590    0.14349    1.000
    Si686    Si       0.03495    0.50421    0.14150    1.000
    N687     N        0.04506    0.49447    0.21849    1.000
    Si688    Si       0.00163    0.49228    0.20922    1.000
    N689     N        0.99933    0.49693    0.16560    1.000
    Si690    Si       0.04550    0.53087    0.24342    1.000
    N691     N        0.11284    0.50026    0.20242    1.000
    Si692    Si       0.16930    0.52239    0.12713    1.000
    Si693    Si       0.13890    0.49616    0.23577    1.000
    Si694    Si       0.20904    0.49222    0.22948    1.000
    N695     N        0.22400    0.52521    0.20426    1.000
    N696     N        0.17155    0.47519    0.21532    1.000
    Si697    Si       0.08630    0.49304    0.28616    1.000
    N698     N        0.06956    0.50449    0.32709    1.000
    Si699    Si       0.02873    0.52050    0.31942    1.000
    N700     N        0.01976    0.52164    0.27687    1.000
    N701     N        0.08273    0.52966    0.26439    1.000
    N702     N        0.00619    0.49065    0.34144    1.000
    Si703    Si       0.07728    0.52291    0.36430    1.000
    N704     N        0.20792    0.51043    0.33569    1.000
    N705     N        0.21112    0.51788    0.26629    1.000
    Si706    Si       0.16590    0.50537    0.35328    1.000
    N707     N        0.15012    0.53290    0.25557    1.000
    Si708    Si       0.17560    0.53609    0.29082    1.000
    Si709    Si       0.23627    0.50333    0.30219    1.000
    N710     N        0.14643    0.53623    0.32535    1.000
    N711     N        0.99684    0.51171    0.43668    1.000
    Si712    Si       0.00519    0.49937    0.39324    1.000
    N713     N        0.07264    0.51251    0.46181    1.000
    N714     N        0.03861    0.52824    0.38465    1.000
    Si715    Si       0.03036    0.52735    0.46346    1.000
    N716     N        0.10570    0.50469    0.39281    1.000
    Si717    Si       0.10386    0.52554    0.43133    1.000
    Si718    Si       0.07511    0.48363    0.49502    1.000
    N719     N        0.14252    0.51542    0.45191    1.000
    N720     N        0.23409    0.53129    0.42915    1.000
    N721     N        0.18170    0.50983    0.39250    1.000
    Si722    Si       0.23650    0.48683    0.43467    1.000
    Si723    Si       0.22223    0.51697    0.37962    1.000
    Si724    Si       0.16925    0.49076    0.43231    1.000
    N725     N        0.09029    0.50403    0.53142    1.000
    N726     N        0.01500    0.50289    0.57272    1.000
    Si727    Si       0.00861    0.49939    0.52993    1.000
    N728     N        0.01617    0.53314    0.50379    1.000
    N729     N        0.10741    0.48252    0.60540    1.000
    Si730    Si       0.11716    0.49449    0.56423    1.000
    Si731    Si       0.21897    0.48202    0.62070    1.000
    N732     N        0.05093    0.52470    0.64952    1.000
    Si733    Si       0.05780    0.51219    0.69265    1.000
    N734     N        0.01848    0.52671    0.71077    1.000
    Si735    Si       0.07569    0.48928    0.63523    1.000
    N736     N        0.08832    0.48385    0.67744    1.000
    Si737    Si       0.02113    0.50135    0.74763    1.000
    N738     N        0.18254    0.50782    0.68482    1.000
    N739     N        0.22644    0.52361    0.63291    1.000
    N740     N        0.14651    0.53027    0.74086    1.000
    Si741    Si       0.18607    0.52641    0.72239    1.000
    Si742    Si       0.18788    0.53536    0.65152    1.000
    N743     N        0.14964    0.53444    0.63291    1.000
    N744     N        0.05118    0.47686    0.72945    1.000
    N745     N        0.04848    0.51761    0.83848    1.000
    N746     N        0.04195    0.53102    0.77076    1.000
    Si747    Si       0.06519    0.48229    0.82050    1.000
    Si748    Si       0.23161    0.50420    0.79202    1.000
    N749     N        0.15310    0.50320    0.81146    1.000
    Si750    Si       0.18019    0.50865    0.84390    1.000
    N751     N        0.22214    0.50331    0.83399    1.000
    N752     N        0.20302    0.52131    0.76301    1.000
    Si753    Si       0.16331    0.53223    0.78232    1.000
    N754     N        0.02913    0.53314    0.98109    1.000
    N755     N        0.99307    0.52764    0.87795    1.000
    N756     N        0.99305    0.49295    0.94025    1.000
    Si757    Si       0.99009    0.51481    0.97682    1.000
    Si758    Si       0.03629    0.52060    0.87911    1.000
    N759     N        0.09531    0.52898    0.96229    1.000
    Si760    Si       0.09301    0.48684    0.95555    1.000
    N761     N        0.04834    0.48230    0.89661    1.000
    Si762    Si       0.21441    0.51340    0.94040    1.000
    N763     N        0.23835    0.48319    0.96138    1.000
    N764     N        0.17157    0.50254    0.94181    1.000
    Si765    Si       0.15741    0.49327    0.98326    1.000
    N766     N        0.22668    0.52679    0.90024    1.000
    N767     N        0.09117    0.47835    0.78541    1.000
    Si768    Si       0.08847    0.57158    0.05473    1.000
    N769     N        0.08000    0.56323    0.01499    1.000
    Si770    Si       0.03670    0.55847    0.01311    1.000
    N771     N        0.01547    0.54502    0.04824    1.000
    Si772    Si       0.21594    0.55407    0.23755    1.000
    N773     N        0.13129    0.57691    0.05119    1.000
    N774     N        0.19905    0.57226    0.03238    1.000
    Si775    Si       0.21651    0.58611    0.07075    1.000
    Si776    Si       0.22853    0.55252    0.00894    1.000
    Si777    Si       0.16311    0.54598    0.04672    1.000
    N778     N        0.09388    0.59338    0.11776    1.000
    N779     N        0.11538    0.58542    0.22133    1.000
    Si780    Si       0.08983    0.54897    0.12232    1.000
    N781     N        0.00070    0.58436    0.17190    1.000
    N782     N        0.04981    0.56632    0.21978    1.000
    Si783    Si       0.03997    0.57123    0.17893    1.000
    N784     N        0.05497    0.54159    0.14984    1.000
    Si785    Si       0.17841    0.59493    0.13520    1.000
    N786     N        0.18864    0.58082    0.21776    1.000
    N787     N        0.19375    0.55525    0.14454    1.000
    Si788    Si       0.22945    0.54428    0.16538    1.000
    N789     N        0.98703    0.59482    0.10072    1.000
    N790     N        0.07552    0.53800    0.08192    1.000
    N791     N        0.08914    0.56285    0.35414    1.000
    N792     N        0.02730    0.56399    0.32792    1.000
    Si793    Si       0.05757    0.59098    0.34530    1.000
    N794     N        0.11312    0.58450    0.28827    1.000
    Si795    Si       0.11401    0.55792    0.25391    1.000
    Si796    Si       0.12272    0.57180    0.32858    1.000
    N797     N        0.19311    0.57486    0.29264    1.000
    Si798    Si       0.02513    0.56475    0.39919    1.000
    N799     N        0.03684    0.56527    0.44214    1.000
    N800     N        0.11277    0.56954    0.43340    1.000
    N801     N        0.18628    0.57015    0.45729    1.000
    Si802    Si       0.22020    0.54618    0.46990    1.000
    Si803    Si       0.14516    0.55779    0.46119    1.000
    N804     N        0.24284    0.58661    0.24297    1.000
    Si805    Si       0.99535    0.59073    0.31545    1.000
    N806     N        0.06399    0.57254    0.53825    1.000
    Si807    Si       0.02221    0.57108    0.52407    1.000
    Si808    Si       0.10083    0.54735    0.53402    1.000
    N809     N        0.99692    0.58368    0.55687    1.000
    N810     N        0.04963    0.58643    0.61259    1.000
    Si811    Si       0.19781    0.57540    0.54030    1.000
    Si812    Si       0.14391    0.56200    0.59894    1.000
    N813     N        0.18374    0.57113    0.58224    1.000
    Si814    Si       0.20405    0.59236    0.61432    1.000
    N815     N        0.12813    0.56606    0.50110    1.000
    N816     N        0.23998    0.58806    0.54593    1.000
    N817     N        0.21095    0.53869    0.51359    1.000
    N818     N        0.12811    0.53606    0.56727    1.000
    N819     N        0.03701    0.59618    0.73181    1.000
    Si820    Si       0.02694    0.55955    0.63662    1.000
    N821     N        0.01615    0.58118    0.67251    1.000
    N822     N        0.08315    0.54487    0.71113    1.000
    Si823    Si       0.98880    0.55639    0.69829    1.000
    Si824    Si       0.05863    0.55937    0.74411    1.000
    Si825    Si       0.11906    0.56082    0.73186    1.000
    Si826    Si       0.21674    0.59292    0.69018    1.000
    N827     N        0.21649    0.55752    0.71363    1.000
    N828     N        0.19435    0.57908    0.65368    1.000
    N829     N        0.09400    0.57738    0.76408    1.000
    N830     N        0.04439    0.58477    0.81308    1.000
    Si831    Si       0.02992    0.54397    0.80952    1.000
    Si832    Si       0.08730    0.59069    0.80515    1.000
    N833     N        0.11803    0.57926    0.83365    1.000
    N834     N        0.16549    0.57483    0.78769    1.000
    N835     N        0.17849    0.55212    0.85193    1.000
    Si836    Si       0.16475    0.58949    0.83087    1.000
    Si837    Si       0.23690    0.55988    0.75276    1.000
    Si838    Si       0.05691    0.54880    0.94905    1.000
    N839     N        0.05503    0.59141    0.95168    1.000
    N840     N        0.05435    0.54726    0.90573    1.000
    Si841    Si       0.11736    0.55706    0.99183    1.000
    N842     N        0.19549    0.58703    0.91596    1.000
    Si843    Si       0.22788    0.58451    0.94711    1.000
    N844     N        0.12080    0.58672    0.91404    1.000
    Si845    Si       0.21101    0.56399    0.88230    1.000
    N846     N        0.21478    0.54843    0.96639    1.000
    N847     N        0.14790    0.58464    0.97489    1.000
    N848     N        0.21973    0.59784    0.76406    1.000
    Si849    Si       0.03632    0.62861    0.03508    1.000
    N850     N        0.06522    0.60986    0.06129    1.000
    Si851    Si       0.08385    0.63082    0.09534    1.000
    N852     N        0.00639    0.64855    0.05732    1.000
    N853     N        0.05548    0.65424    0.00555    1.000
    N854     N        0.01786    0.59856    0.00452    1.000
    N855     N        0.12206    0.64164    0.08015    1.000
    N856     N        0.16221    0.63160    0.02579    1.000
    Si857    Si       0.14989    0.61250    0.06290    1.000
    Si858    Si       0.22251    0.64580    0.11014    1.000
    N859     N        0.23282    0.62858    0.07296    1.000
    Si860    Si       0.17972    0.59930    0.00134    1.000
    N861     N        0.18069    0.59824    0.09349    1.000
    Si862    Si       0.10302    0.61641    0.15502    1.000
    N863     N        0.00764    0.64933    0.14371    1.000
    N864     N        0.06405    0.61216    0.18048    1.000
    Si865    Si       0.04798    0.64993    0.16475    1.000
    N866     N        0.08344    0.65387    0.13661    1.000
    Si867    Si       0.07513    0.60298    0.22259    1.000
    N868     N        0.20782    0.62714    0.14846    1.000
    Si869    Si       0.21144    0.61677    0.23314    1.000
    Si870    Si       0.15203    0.60081    0.20397    1.000
    N871     N        0.23355    0.64131    0.20227    1.000
    N872     N        0.14470    0.60755    0.16106    1.000
    N873     N        0.16930    0.63917    0.21801    1.000
    Si874    Si       0.19547    0.65133    0.18349    1.000
    Si875    Si       0.98770    0.61101    0.13953    1.000
    N876     N        0.08056    0.62521    0.32659    1.000
    Si877    Si       0.10155    0.62510    0.28726    1.000
    N878     N        0.01845    0.62963    0.31893    1.000
    N879     N        0.07295    0.63365    0.25327    1.000
    Si880    Si       0.11593    0.64770    0.34908    1.000
    N881     N        0.20808    0.62654    0.34022    1.000
    N882     N        0.20196    0.63535    0.27144    1.000
    Si883    Si       0.21715    0.60864    0.30188    1.000
    Si884    Si       0.17251    0.62860    0.36419    1.000
    N885     N        0.13933    0.60923    0.34193    1.000
    Si886    Si       0.18526    0.61083    0.43792    1.000
    N887     N        0.21820    0.63781    0.43200    1.000
    Si888    Si       0.01766    0.63890    0.39458    1.000
    N889     N        0.00613    0.62579    0.43430    1.000
    N890     N        0.10666    0.63975    0.39509    1.000
    N891     N        0.07646    0.62981    0.45178    1.000
    Si892    Si       0.03902    0.60614    0.45412    1.000
    N893     N        0.03839    0.60252    0.38294    1.000
    Si894    Si       0.11118    0.61277    0.42973    1.000
    N895     N        0.14513    0.62060    0.45728    1.000
    N896     N        0.17420    0.60413    0.39808    1.000
    N897     N        0.04424    0.63385    0.55918    1.000
    Si898    Si       0.06506    0.61724    0.52604    1.000
    N899     N        0.10468    0.62923    0.52046    1.000
    Si900    Si       0.02099    0.60759    0.58390    1.000
    Si901    Si       0.14948    0.63729    0.62646    1.000
    N902     N        0.03039    0.60370    0.49797    1.000
    N903     N        0.17632    0.60777    0.52119    1.000
    Si904    Si       0.19242    0.64872    0.52741    1.000
    Si905    Si       0.13865    0.60880    0.50046    1.000
    N906     N        0.19151    0.63457    0.61165    1.000
    N907     N        0.12541    0.59950    0.61798    1.000
    N908     N        0.23222    0.65397    0.54283    1.000
    N909     N        0.07352    0.64905    0.62274    1.000
    N910     N        0.09995    0.64900    0.72698    1.000
    Si911    Si       0.08461    0.60766    0.63052    1.000
    Si912    Si       0.04484    0.60997    0.69011    1.000
    N913     N        0.08544    0.60518    0.67421    1.000
    N914     N        0.04412    0.65305    0.68710    1.000
    N915     N        0.14043    0.59787    0.72361    1.000
    N916     N        0.14673    0.64255    0.66916    1.000
    N917     N        0.19587    0.62514    0.71098    1.000
    Si918    Si       0.11886    0.62382    0.69482    1.000
    Si919    Si       0.99777    0.60994    0.74686    1.000
    N920     N        0.09095    0.63407    0.79329    1.000
    Si921    Si       0.01391    0.61354    0.82365    1.000
    N922     N        0.03887    0.65057    0.83032    1.000
    N923     N        0.98923    0.61964    0.78834    1.000
    N924     N        0.98737    0.60003    0.85670    1.000
    Si925    Si       0.11661    0.59679    0.87191    1.000
    Si926    Si       0.11720    0.62517    0.75788    1.000
    N927     N        0.15896    0.63989    0.76818    1.000
    Si928    Si       0.22411    0.62333    0.79773    1.000
    N929     N        0.20502    0.61140    0.83362    1.000
    N930     N        0.15122    0.62066    0.86122    1.000
    Si931    Si       0.23771    0.62500    0.86135    1.000
    Si932    Si       0.17690    0.60411    0.75031    1.000
    Si933    Si       0.08042    0.60664    0.92098    1.000
    N934     N        0.07868    0.61988    0.87812    1.000
    N935     N        0.08373    0.64581    0.94004    1.000
    Si936    Si       0.03970    0.62387    0.97471    1.000
    N937     N        0.01346    0.64808    0.94971    1.000
    Si938    Si       0.15768    0.59779    0.93392    1.000
    N939     N        0.21160    0.61338    0.97579    1.000
    Si940    Si       0.22544    0.65279    0.97834    1.000
    Si941    Si       0.17090    0.64976    0.88517    1.000
    N942     N        0.15517    0.64337    0.92876    1.000
    N943     N        0.08326    0.69782    0.08710    1.000
    Si944    Si       0.99258    0.68932    0.05833    1.000
    Si945    Si       0.17572    0.70431    0.13576    1.000
    N946     N        0.20691    0.68649    0.10984    1.000
    Si947    Si       0.12748    0.68507    0.07948    1.000
    Si948    Si       0.15752    0.67248    0.01234    1.000
    N949     N        0.15393    0.69781    0.04713    1.000
    Si950    Si       0.09469    0.69567    0.12984    1.000
    N951     N        0.04794    0.67776    0.19853    1.000
    Si952    Si       0.05403    0.67169    0.24210    1.000
    N953     N        0.13685    0.69818    0.12014    1.000
    N954     N        0.17982    0.69063    0.17707    1.000
    N955     N        0.02998    0.69242    0.31852    1.000
    N956     N        0.09302    0.68409    0.33263    1.000
    N957     N        0.07831    0.70348    0.26286    1.000
    N958     N        0.01395    0.67092    0.25585    1.000
    Si959    Si       0.00140    0.66379    0.29646    1.000
    Si960    Si       0.10923    0.69450    0.29199    1.000
    Si961    Si       0.05347    0.66090    0.33792    1.000
    N962     N        0.15477    0.66838    0.35940    1.000
    Si963    Si       0.18250    0.70060    0.35746    1.000
    N964     N        0.19439    0.70793    0.31718    1.000
    N965     N        0.17374    0.69955    0.24998    1.000
    Si966    Si       0.16612    0.65764    0.25968    1.000
    Si967    Si       0.23728    0.70729    0.31609    1.000
    Si968    Si       0.08177    0.66859    0.47418    1.000
    N969     N        0.06767    0.69506    0.44063    1.000
    Si970    Si       0.08420    0.67667    0.40286    1.000
    N971     N        0.04968    0.66678    0.38048    1.000
    N972     N        0.10370    0.71335    0.38964    1.000
    N973     N        0.16380    0.69250    0.42775    1.000
    N974     N        0.11826    0.68698    0.48874    1.000
    Si975    Si       0.15581    0.69574    0.47064    1.000
    N976     N        0.23191    0.70548    0.44801    1.000
    N977     N        0.18947    0.67323    0.49061    1.000
    N978     N        0.21425    0.68136    0.37934    1.000
    Si979    Si       0.20505    0.68038    0.42254    1.000
    Si980    Si       0.21325    0.70912    0.48699    1.000
    N981     N        0.12994    0.65790    0.28479    1.000
    N982     N        0.09331    0.69106    0.55781    1.000
    Si983    Si       0.05326    0.67601    0.55254    1.000
    N984     N        0.02257    0.70560    0.54858    1.000
    N985     N        0.05249    0.66805    0.50626    1.000
    Si986    Si       0.02281    0.70239    0.50584    1.000
    Si987    Si       0.11908    0.66896    0.52974    1.000
    N988     N        0.20501    0.70099    0.59666    1.000
    Si989    Si       0.16443    0.69285    0.58033    1.000
    N990     N        0.15793    0.66613    0.54800    1.000
    N991     N        0.14184    0.67809    0.61434    1.000
    Si992    Si       0.06188    0.67580    0.65377    1.000
    Si993    Si       0.06290    0.66919    0.72414    1.000
    N994     N        0.02621    0.69866    0.64140    1.000
    N995     N        0.09385    0.70261    0.66676    1.000
    Si996    Si       0.99563    0.66953    0.63305    1.000
    Si997    Si       0.17892    0.66234    0.69329    1.000
    Si998    Si       0.21491    0.66909    0.62301    1.000
    N999     N        0.18273    0.68995    0.72710    1.000
    N1000    N        0.20073    0.68378    0.66081    1.000
    Si1001   Si       0.12244    0.71145    0.63378    1.000
    N1002    N        0.08852    0.69496    0.85884    1.000
    N1003    N        0.06770    0.70573    0.79186    1.000
    Si1004   Si       0.05762    0.66205    0.79467    1.000
    Si1005   Si       0.99401    0.67409    0.75621    1.000
    Si1006   Si       0.06373    0.65876    0.86665    1.000
    N1007    N        0.03514    0.66076    0.75644    1.000
    Si1008   Si       0.12497    0.70983    0.87952    1.000
    Si1009   Si       0.18027    0.67710    0.76967    1.000
    N1010    N        0.22045    0.66414    0.78364    1.000
    N1011    N        0.22692    0.70783    0.83028    1.000
    Si1012   Si       0.20491    0.70592    0.86829    1.000
    N1013    N        0.16181    0.71110    0.78938    1.000
    Si1014   Si       0.00592    0.70258    0.87848    1.000
    Si1015   Si       0.04676    0.67287    0.93563    1.000
    N1016    N        0.03606    0.67300    0.89486    1.000
    N1017    N        0.06227    0.70634    0.95940    1.000
    N1018    N        0.12085    0.67919    0.98772    1.000
    N1019    N        0.16266    0.68900    0.86958    1.000
    N1020    N        0.19390    0.67995    0.98778    1.000
    Si1021   Si       0.12094    0.66677    0.94560    1.000
    N1022    N        0.11825    0.70352    0.92309    1.000
    N1023    N        0.21533    0.65838    0.88220    1.000
    Si1024   Si       0.07766    0.69135    0.99725    1.000
    Si1025   Si       0.10126    0.75970    0.01137    1.000
    Si1026   Si       0.06363    0.72883    0.06382    1.000
    N1027    N        0.02135    0.72167    0.05870    1.000
    N1028    N        0.08129    0.72436    0.02491    1.000
    N1029    N        0.06875    0.76488    0.08485    1.000
    Si1030   Si       0.99425    0.75947    0.06103    1.000
    Si1031   Si       0.16743    0.73957    0.04032    1.000
    N1032    N        0.19578    0.75050    0.07513    1.000
    N1033    N        0.13206    0.76319    0.04179    1.000
    Si1034   Si       0.22791    0.72128    0.08939    1.000
    N1035    N        0.18591    0.74812    0.00058    1.000
    Si1036   Si       0.17302    0.77408    0.10792    1.000
    Si1037   Si       0.16448    0.71540    0.21046    1.000
    Si1038   Si       0.09184    0.74572    0.18674    1.000
    N1039    N        0.05578    0.74564    0.21266    1.000
    N1040    N        0.08016    0.73226    0.14710    1.000
    N1041    N        0.01122    0.72007    0.14924    1.000
    Si1042   Si       0.02976    0.71815    0.18848    1.000
    N1043    N        0.99270    0.71884    0.21433    1.000
    Si1044   Si       0.99067    0.75726    0.13843    1.000
    Si1045   Si       0.20243    0.76905    0.17108    1.000
    N1046    N        0.18389    0.75401    0.20596    1.000
    N1047    N        0.18826    0.74550    0.13743    1.000
    N1048    N        0.12352    0.72132    0.20095    1.000
    Si1049   Si       0.08788    0.77253    0.12683    1.000
    N1050    N        0.03275    0.75237    0.28189    1.000
    Si1051   Si       0.02869    0.73600    0.32285    1.000
    N1052    N        0.05941    0.74762    0.35150    1.000
    Si1053   Si       0.09558    0.72551    0.34969    1.000
    Si1054   Si       0.06778    0.74505    0.25413    1.000
    N1055    N        0.99318    0.73522    0.34935    1.000
    N1056    N        0.11819    0.73436    0.31185    1.000
    Si1057   Si       0.19053    0.72781    0.27885    1.000
    N1058    N        0.23327    0.72919    0.27641    1.000
    N1059    N        0.17111    0.76619    0.27272    1.000
    Si1060   Si       0.13078    0.76876    0.28944    1.000
    N1061    N        0.04598    0.76898    0.42104    1.000
    Si1062   Si       0.04070    0.72855    0.44027    1.000
    N1063    N        0.04062    0.73558    0.48443    1.000
    N1064    N        0.20746    0.76844    0.41576    1.000
    Si1065   Si       0.17940    0.77004    0.45201    1.000
    N1066    N        0.16601    0.73814    0.37325    1.000
    N1067    N        0.17720    0.73383    0.47855    1.000
    Si1068   Si       0.14240    0.72487    0.40717    1.000
    N1069    N        0.14055    0.76406    0.42914    1.000
    N1070    N        0.00219    0.71599    0.42518    1.000
    N1071    N        0.09684    0.73728    0.60985    1.000
    N1072    N        0.00989    0.75311    0.60312    1.000
    Si1073   Si       0.10376    0.73275    0.56673    1.000
    N1074    N        0.08859    0.76340    0.54050    1.000
    Si1075   Si       0.05320    0.76653    0.51318    1.000
    Si1076   Si       0.99305    0.72398    0.57562    1.000
    N1077    N        0.14628    0.73009    0.56951    1.000
    Si1078   Si       0.23172    0.73755    0.59717    1.000
    Si1079   Si       0.23396    0.76433    0.53403    1.000
    Si1080   Si       0.16902    0.76509    0.57157    1.000
    N1081    N        0.23617    0.72391    0.51995    1.000
    N1082    N        0.19909    0.76951    0.60555    1.000
    N1083    N        0.05427    0.75862    0.66012    1.000
    Si1084   Si       0.07976    0.73576    0.68993    1.000
    Si1085   Si       0.01807    0.74110    0.64431    1.000
    N1086    N        0.06333    0.71470    0.72438    1.000
    N1087    N        0.11189    0.76557    0.69604    1.000
    N1088    N        0.15575    0.73583    0.64796    1.000
    N1089    N        0.20815    0.74665    0.68930    1.000
    Si1090   Si       0.19633    0.73044    0.72866    1.000
    N1091    N        0.16618    0.75896    0.73945    1.000
    Si1092   Si       0.20020    0.72787    0.65021    1.000
    N1093    N        0.07855    0.76150    0.83262    1.000
    Si1094   Si       0.04656    0.72743    0.76200    1.000
    Si1095   Si       0.06686    0.72016    0.83132    1.000
    N1096    N        0.02637    0.72111    0.84617    1.000
    N1097    N        0.04602    0.76897    0.77256    1.000
    Si1098   Si       0.22326    0.74115    0.80031    1.000
    Si1099   Si       0.15785    0.75269    0.78189    1.000
    N1100    N        0.22830    0.73038    0.75832    1.000
    N1101    N        0.11666    0.76853    0.77433    1.000
    N1102    N        0.19244    0.77179    0.80073    1.000
    Si1103   Si       0.08958    0.73254    0.93953    1.000
    N1104    N        0.07081    0.75434    0.90533    1.000
    N1105    N        0.00160    0.73178    0.91044    1.000
    N1106    N        0.10630    0.75526    0.97047    1.000
    Si1107   Si       0.03069    0.76752    0.91683    1.000
    Si1108   Si       0.09474    0.77437    0.87270    1.000
    Si1109   Si       0.23102    0.75504    0.90768    1.000
    Si1110   Si       0.21341    0.71777    0.97915    1.000
    N1111    N        0.20968    0.74139    0.94407    1.000
    N1112    N        0.19636    0.74856    0.88008    1.000
    N1113    N        0.13031    0.75214    0.88055    1.000
    Si1114   Si       0.19134    0.77355    0.96663    1.000
    Si1115   Si       0.16576    0.77470    0.89471    1.000
    N1116    N        0.00472    0.71593    0.76447    1.000
    Si1117   Si       0.04175    0.79786    0.09786    1.000
    Si1118   Si       0.04183    0.80973    0.03145    1.000
    N1119    N        0.08195    0.79710    0.02285    1.000
    N1120    N        0.01084    0.78086    0.02752    1.000
    N1121    N        0.08949    0.82170    0.09467    1.000
    Si1122   Si       0.11239    0.79487    0.06901    1.000
    N1123    N        0.00324    0.77451    0.10159    1.000
    Si1124   Si       0.21792    0.78791    0.06183    1.000
    N1125    N        0.18898    0.81211    0.09245    1.000
    N1126    N        0.20567    0.82135    0.03348    1.000
    N1127    N        0.99316    0.78071    0.17468    1.000
    Si1128   Si       0.01749    0.81685    0.16749    1.000
    N1129    N        0.05222    0.79973    0.14195    1.000
    N1130    N        0.10586    0.78437    0.17320    1.000
    Si1131   Si       0.18409    0.78508    0.23606    1.000
    N1132    N        0.15545    0.81549    0.22091    1.000
    Si1133   Si       0.07969    0.83207    0.16525    1.000
    N1134    N        0.22439    0.80210    0.23304    1.000
    N1135    N        0.17918    0.80400    0.15694    1.000
    Si1136   Si       0.14122    0.80914    0.17911    1.000
    N1137    N        0.03262    0.83125    0.06866    1.000
    Si1138   Si       0.10762    0.83175    0.01638    1.000
    N1139    N        0.13384    0.83086    0.05062    1.000
    N1140    N        0.12995    0.77413    0.10815    1.000
    Si1141   Si       0.01296    0.78985    0.27201    1.000
    Si1142   Si       0.08271    0.81842    0.27180    1.000
    N1143    N        0.99754    0.80964    0.30689    1.000
    Si1144   Si       0.10353    0.81864    0.33928    1.000
    N1145    N        0.06883    0.82150    0.31448    1.000
    N1146    N        0.04003    0.82056    0.25717    1.000
    Si1147   Si       0.03007    0.83030    0.32815    1.000
    N1148    N        0.09680    0.77787    0.26425    1.000
    N1149    N        0.02993    0.81389    0.36976    1.000
    N1150    N        0.13829    0.80541    0.31526    1.000
    Si1151   Si       0.17916    0.81445    0.31061    1.000
    N1152    N        0.20258    0.78427    0.33615    1.000
    N1153    N        0.09630    0.79612    0.37703    1.000
    N1154    N        0.99883    0.79484    0.47579    1.000
    Si1155   Si       0.03675    0.80008    0.45205    1.000
    N1156    N        0.06696    0.79527    0.48546    1.000
    Si1157   Si       0.10117    0.81950    0.47765    1.000
    Si1158   Si       0.05569    0.78028    0.38094    1.000
    N1159    N        0.15913    0.81324    0.38206    1.000
    N1160    N        0.19801    0.80032    0.47574    1.000
    N1161    N        0.11561    0.82726    0.43697    1.000
    Si1162   Si       0.12637    0.80011    0.40762    1.000
    Si1163   Si       0.18438    0.77807    0.37630    1.000
    N1164    N        0.06022    0.80168    0.59709    1.000
    Si1165   Si       0.02118    0.78883    0.58097    1.000
    Si1166   Si       0.10986    0.80052    0.54183    1.000
    N1167    N        0.02196    0.77815    0.53862    1.000
    Si1168   Si       0.99447    0.80314    0.51767    1.000
    N1169    N        0.14093    0.79858    0.57239    1.000
    Si1170   Si       0.17586    0.80898    0.51366    1.000
    N1171    N        0.13321    0.80525    0.50411    1.000
    Si1172   Si       0.13687    0.82354    0.61067    1.000
    Si1173   Si       0.20964    0.81094    0.61311    1.000
    N1174    N        0.19128    0.77562    0.53626    1.000
    N1175    N        0.16740    0.80099    0.68302    1.000
    Si1176   Si       0.07826    0.77455    0.62669    1.000
    N1177    N        0.11615    0.79576    0.63647    1.000
    Si1178   Si       0.13066    0.78105    0.73315    1.000
    N1179    N        0.13161    0.82430    0.73669    1.000
    N1180    N        0.23065    0.80805    0.65134    1.000
    N1181    N        0.22885    0.80513    0.71874    1.000
    Si1182   Si       0.20880    0.78982    0.68380    1.000
    Si1183   Si       0.14045    0.77349    0.66374    1.000
    Si1184   Si       0.01012    0.79360    0.77061    1.000
    Si1185   Si       0.08110    0.78234    0.79405    1.000
    N1186    N        0.08455    0.82547    0.78861    1.000
    Si1187   Si       0.21024    0.83152    0.87983    1.000
    N1188    N        0.14746    0.82270    0.81336    1.000
    Si1189   Si       0.19213    0.81310    0.80858    1.000
    Si1190   Si       0.98692    0.82317    0.90197    1.000
    N1191    N        0.22146    0.82603    0.83832    1.000
    N1192    N        0.09414    0.81721    0.86929    1.000
    N1193    N        0.02766    0.80663    0.89653    1.000
    Si1194   Si       0.00312    0.79631    0.98552    1.000
    N1195    N        0.02640    0.77554    0.95743    1.000
    Si1196   Si       0.23597    0.82646    0.93700    1.000
    Si1197   Si       0.15221    0.82913    0.94268    1.000
    N1198    N        0.22364    0.79785    0.90645    1.000
    N1199    N        0.22873    0.79907    0.97529    1.000
    N1200    N        0.16095    0.78813    0.93591    1.000
    N1201    N        0.16595    0.81435    0.87542    1.000
    N1202    N        0.13192    0.83310    0.98215    1.000
    Si1203   Si       0.02863    0.87427    0.06962    1.000
    Si1204   Si       0.08782    0.86655    0.10043    1.000
    N1205    N        0.01414    0.88580    0.03150    1.000
    N1206    N        0.08575    0.86655    0.00462    1.000
    N1207    N        0.00539    0.88887    0.10362    1.000
    Si1208   Si       0.04195    0.87375    0.00117    1.000
    Si1209   Si       0.13580    0.87776    0.14926    1.000
    Si1210   Si       0.19489    0.83225    0.12936    1.000
    N1211    N        0.02739    0.83337    0.99558    1.000
    N1212    N        0.18557    0.88156    0.06456    1.000
    N1213    N        0.21476    0.87723    0.00400    1.000
    Si1214   Si       0.17449    0.83962    0.05772    1.000
    Si1215   Si       0.23448    0.83743    0.00154    1.000
    N1216    N        0.12489    0.88474    0.10649    1.000
    N1217    N        0.23666    0.87479    0.22889    1.000
    N1218    N        0.99589    0.85132    0.15530    1.000
    Si1219   Si       0.02745    0.88131    0.14203    1.000
    Si1220   Si       0.02653    0.85155    0.23054    1.000
    N1221    N        0.06552    0.86648    0.13861    1.000
    N1222    N        0.04361    0.88875    0.24415    1.000
    Si1223   Si       0.14968    0.85031    0.24600    1.000
    N1224    N        0.17802    0.87168    0.13457    1.000
    Si1225   Si       0.23596    0.88443    0.15391    1.000
    N1226    N        0.11959    0.84575    0.16863    1.000
    N1227    N        0.16194    0.89153    0.23272    1.000
    N1228    N        0.04658    0.83527    0.19495    1.000
    N1229    N        0.02110    0.87179    0.32731    1.000
    N1230    N        0.10820    0.85384    0.25908    1.000
    N1231    N        0.11958    0.85871    0.34654    1.000
    Si1232   Si       0.18409    0.87839    0.30115    1.000
    N1233    N        0.18610    0.85161    0.33540    1.000
    N1234    N        0.18400    0.84108    0.27473    1.000
    Si1235   Si       0.22950    0.83931    0.25258    1.000
    N1236    N        0.22436    0.89366    0.29722    1.000
    N1237    N        0.00174    0.88130    0.39090    1.000
    Si1238   Si       0.06012    0.87491    0.44716    1.000
    N1239    N        0.08376    0.86009    0.48071    1.000
    N1240    N        0.03862    0.83870    0.43297    1.000
    Si1241   Si       0.00844    0.83720    0.39918    1.000
    N1242    N        0.09465    0.89096    0.42564    1.000
    Si1243   Si       0.15688    0.85523    0.36724    1.000
    Si1244   Si       0.21063    0.87841    0.46291    1.000
    N1245    N        0.16669    0.86652    0.46111    1.000
    Si1246   Si       0.13436    0.86625    0.43273    1.000
    N1247    N        0.15237    0.88676    0.39767    1.000
    N1248    N        0.24038    0.85325    0.48200    1.000
    N1249    N        0.04472    0.86921    0.58841    1.000
    Si1250   Si       0.02187    0.87173    0.55180    1.000
    Si1251   Si       0.08541    0.87775    0.52036    1.000
    N1252    N        0.00918    0.84253    0.52396    1.000
    N1253    N        0.08991    0.83908    0.54620    1.000
    Si1254   Si       0.07681    0.84037    0.58757    1.000
    N1255    N        0.11138    0.86065    0.60843    1.000
    N1256    N        0.17698    0.84974    0.52940    1.000
    Si1257   Si       0.18876    0.85508    0.57323    1.000
    Si1258   Si       0.16536    0.88243    0.50320    1.000
    N1259    N        0.17602    0.83919    0.61267    1.000
    Si1260   Si       0.01999    0.84544    0.69218    1.000
    N1261    N        0.00967    0.87560    0.71969    1.000
    N1262    N        0.01097    0.86347    0.65186    1.000
    Si1263   Si       0.09529    0.84728    0.71942    1.000
    Si1264   Si       0.10731    0.88262    0.64848    1.000
    N1265    N        0.06068    0.83289    0.70134    1.000
    N1266    N        0.22377    0.82724    0.57603    1.000
    Si1267   Si       0.03377    0.89099    0.62561    1.000
    N1268    N        0.11935    0.86166    0.68350    1.000
    Si1269   Si       0.15449    0.84074    0.70107    1.000
    N1270    N        0.19027    0.86057    0.71172    1.000
    Si1271   Si       0.21931    0.84178    0.73691    1.000
    Si1272   Si       0.05550    0.85970    0.79438    1.000
    N1273    N        0.03677    0.84459    0.83524    1.000
    N1274    N        0.01678    0.83769    0.77502    1.000
    N1275    N        0.19455    0.84473    0.94647    1.000
    N1276    N        0.12553    0.85919    0.92534    1.000
    Si1277   Si       0.99671    0.83060    0.82373    1.000
    N1278    N        0.20145    0.84242    0.77564    1.000
    Si1279   Si       0.18501    0.88201    0.78075    1.000
    N1280    N        0.14223    0.87756    0.77574    1.000
    N1281    N        0.13399    0.87635    0.85559    1.000
    Si1282   Si       0.12597    0.83676    0.77766    1.000
    N1283    N        0.06032    0.87097    0.89489    1.000
    Si1284   Si       0.05327    0.83483    0.87478    1.000
    N1285    N        0.98774    0.85823    0.92770    1.000
    Si1286   Si       0.09777    0.88938    0.90728    1.000
    Si1287   Si       0.19363    0.88354    0.96565    1.000
    Si1288   Si       0.11394    0.87092    0.96901    1.000
    N1289    N        0.19815    0.87415    0.88481    1.000
    Si1290   Si       0.13112    0.83317    0.85368    1.000
    N1291    N        0.08150    0.87780    0.74574    1.000
    Si1292   Si       0.06784    0.93692    0.08348    1.000
    N1293    N        0.06717    0.89524    0.07359    1.000
    N1294    N        0.20416    0.93989    0.03133    1.000
    N1295    N        0.17817    0.93681    0.11011    1.000
    Si1296   Si       0.21708    0.89810    0.04121    1.000
    Si1297   Si       0.16710    0.89577    0.10043    1.000
    N1298    N        0.08614    0.94488    0.12328    1.000
    N1299    N        0.02868    0.92107    0.16124    1.000
    N1300    N        0.10189    0.92651    0.23874    1.000
    Si1301   Si       0.20586    0.90479    0.22061    1.000
    N1302    N        0.13152    0.91508    0.17100    1.000
    N1303    N        0.21742    0.94127    0.24044    1.000
    Si1304   Si       0.13805    0.92304    0.21359    1.000
    Si1305   Si       0.20811    0.93791    0.14403    1.000
    N1306    N        0.21001    0.91015    0.17826    1.000
    N1307    N        0.08243    0.90476    0.30139    1.000
    Si1308   Si       0.05517    0.93390    0.31959    1.000
    N1309    N        0.02239    0.93877    0.29163    1.000
    N1310    N        0.11077    0.92816    0.35961    1.000
    N1311    N        0.02632    0.94713    0.35331    1.000
    Si1312   Si       0.02095    0.92543    0.24979    1.000
    Si1313   Si       0.08438    0.89136    0.25970    1.000
    Si1314   Si       0.11572    0.89820    0.32920    1.000
    Si1315   Si       0.99216    0.94927    0.32299    1.000
    N1316    N        0.15462    0.90896    0.31118    1.000
    Si1317   Si       0.23474    0.92333    0.32532    1.000
    Si1318   Si       0.16667    0.95286    0.31305    1.000
    Si1319   Si       0.99483    0.90111    0.42833    1.000
    N1320    N        0.03093    0.90569    0.45404    1.000
    Si1321   Si       0.23878    0.92621    0.40406    1.000
    Si1322   Si       0.11893    0.91638    0.39898    1.000
    N1323    N        0.23653    0.89872    0.43556    1.000
    N1324    N        0.11398    0.95420    0.42124    1.000
    Si1325   Si       0.02248    0.91793    0.49583    1.000
    N1326    N        0.19751    0.90920    0.49399    1.000
    N1327    N        0.04701    0.89529    0.52287    1.000
    N1328    N        0.01233    0.92653    0.61464    1.000
    N1329    N        0.11400    0.93249    0.57140    1.000
    Si1330   Si       0.15986    0.94082    0.73813    1.000
    N1331    N        0.17656    0.89968    0.57580    1.000
    Si1332   Si       0.13531    0.90122    0.59216    1.000
    Si1333   Si       0.12518    0.93712    0.52870    1.000
    Si1334   Si       0.20218    0.93843    0.57522    1.000
    N1335    N        0.12574    0.89411    0.51838    1.000
    Si1336   Si       0.20209    0.90221    0.70672    1.000
    Si1337   Si       0.07426    0.94801    0.64860    1.000
    N1338    N        0.05109    0.93711    0.72364    1.000
    N1339    N        0.07068    0.90440    0.64647    1.000
    Si1340   Si       0.04399    0.89551    0.73896    1.000
    N1341    N        0.23874    0.92869    0.55394    1.000
    N1342    N        0.23533    0.90192    0.67859    1.000
    N1343    N        0.21028    0.93718    0.61991    1.000
    Si1344   Si       0.14758    0.94412    0.66149    1.000
    N1345    N        0.17023    0.93141    0.69543    1.000
    N1346    N        0.13762    0.91270    0.63401    1.000
    N1347    N        0.11909    0.93482    0.74758    1.000
    N1348    N        0.03418    0.93548    0.84628    1.000
    N1349    N        0.02852    0.89992    0.78151    1.000
    Si1350   Si       0.02835    0.93748    0.80250    1.000
    Si1351   Si       0.10847    0.90564    0.77941    1.000
    Si1352   Si       0.10889    0.90991    0.84218    1.000
    N1353    N        0.12788    0.93625    0.81277    1.000
    N1354    N        0.19489    0.91253    0.75166    1.000
    Si1355   Si       0.23612    0.90906    0.82848    1.000
    N1356    N        0.23211    0.94452    0.80297    1.000
    N1357    N        0.19527    0.89368    0.82058    1.000
    Si1358   Si       0.17258    0.89430    0.85705    1.000
    Si1359   Si       0.21967    0.94994    0.76284    1.000
    N1360    N        0.16467    0.93554    0.86864    1.000
    Si1361   Si       0.99076    0.89382    0.95292    1.000
    N1362    N        0.04432    0.94685    0.91881    1.000
    N1363    N        0.09667    0.92668    0.88025    1.000
    Si1364   Si       0.05800    0.93013    0.95599    1.000
    N1365    N        0.03153    0.89915    0.96900    1.000
    N1366    N        0.09837    0.91129    0.94901    1.000
    Si1367   Si       0.05910    0.94858    0.87850    1.000
    N1368    N        0.15368    0.89531    0.97371    1.000
    N1369    N        0.21915    0.90887    0.94079    1.000
    Si1370   Si       0.23470    0.89257    0.90157    1.000
    Si1371   Si       0.13540    0.93211    0.96365    1.000
    Si1372   Si       0.23021    0.94927    0.95252    1.000
    N1373    N        0.08531    0.88906    0.81317    1.000
    Si1374   Si       0.10009    0.97205    0.01237    1.000
    Si1375   Si       0.05070    0.99293    0.06001    1.000
    Si1376   Si       0.00255    0.98386    0.10526    1.000
    N1377    N        0.03032    0.95998    0.08222    1.000
    N1378    N        0.08173    0.96151    0.04939    1.000
    N1379    N        0.02535    0.00505    0.02621    1.000
    N1380    N        0.14420    0.97967    0.06636    1.000
    Si1381   Si       0.16565    0.97923    0.10364    1.000
    Si1382   Si       0.16770    0.96392    0.03260    1.000
    N1383    N        0.13698    0.95335    0.00239    1.000
    Si1384   Si       0.01941    0.00161    0.23414    1.000
    Si1385   Si       0.08344    0.96450    0.22567    1.000
    N1386    N        0.08617    0.96294    0.18275    1.000
    N1387    N        0.02758    0.98603    0.14483    1.000
    N1388    N        0.03867    0.96272    0.23216    1.000
    Si1389   Si       0.05535    0.95497    0.15522    1.000
    Si1390   Si       0.11742    0.95082    0.15224    1.000
    Si1391   Si       0.99674    0.00668    0.16989    1.000
    N1392    N        0.14447    0.98334    0.14106    1.000
    Si1393   Si       0.16766    0.99087    0.17613    1.000
    N1394    N        0.15737    0.96376    0.20905    1.000
    Si1395   Si       0.18777    0.97344    0.24026    1.000
    N1396    N        0.20671    0.97772    0.16130    1.000
    N1397    N        0.18427    0.00560    0.02329    1.000
    N1398    N        0.19922    0.00660    0.08889    1.000
    N1399    N        0.20617    0.01235    0.23373    1.000
    N1400    N        0.07648    0.97162    0.31671    1.000
    Si1401   Si       0.06307    0.99743    0.28711    1.000
    Si1402   Si       0.10717    0.96929    0.34787    1.000
    N1403    N        0.09119    0.99926    0.25190    1.000
    Si1404   Si       0.23973    0.98631    0.31764    1.000
    N1405    N        0.16793    0.97463    0.27583    1.000
    N1406    N        0.14564    0.98460    0.33402    1.000
    N1407    N        0.20578    0.95548    0.33273    1.000
    Si1408   Si       0.20439    0.97930    0.36892    1.000
    N1409    N        0.09853    0.00323    0.37457    1.000
    Si1410   Si       0.01867    0.98121    0.38004    1.000
    N1411    N        0.03228    0.95927    0.48782    1.000
    N1412    N        0.04522    0.97783    0.41543    1.000
    Si1413   Si       0.08782    0.98959    0.41588    1.000
    Si1414   Si       0.02721    0.95265    0.44609    1.000
    N1415    N        0.10571    0.00690    0.45288    1.000
    N1416    N        0.22720    0.97199    0.49485    1.000
    N1417    N        0.24268    0.99787    0.35903    1.000
    N1418    N        0.20953    0.95644    0.40688    1.000
    Si1419   Si       0.18634    0.98859    0.42705    1.000
    N1420    N        0.16590    0.96963    0.45943    1.000
    N1421    N        0.17338    0.00126    0.38815    1.000
    Si1422   Si       0.12368    0.96826    0.46171    1.000
    Si1423   Si       0.18922    0.95237    0.49283    1.000
    Si1424   Si       0.09504    0.97249    0.57758    1.000
    N1425    N        0.05941    0.97665    0.55248    1.000
    Si1426   Si       0.01907    0.99047    0.56504    1.000
    Si1427   Si       0.06471    0.98037    0.50918    1.000
    N1428    N        0.01455    0.00170    0.60726    1.000
    N1429    N        0.10004    0.95709    0.49788    1.000
    N1430    N        0.09147    0.97612    0.62042    1.000
    N1431    N        0.12211    0.00122    0.55963    1.000
    N1432    N        0.19685    0.98293    0.57244    1.000
    Si1433   Si       0.16396    0.99507    0.54790    1.000
    N1434    N        0.16170    0.95837    0.52553    1.000
    N1435    N        0.01213    0.99295    0.72792    1.000
    Si1436   Si       0.00682    0.96624    0.63000    1.000
    N1437    N        0.08402    0.99137    0.73489    1.000
    N1438    N        0.03685    0.96685    0.66428    1.000
    Si1439   Si       0.01992    0.95844    0.70262    1.000
    Si1440   Si       0.09116    0.95115    0.71940    1.000
    N1441    N        0.15501    0.98767    0.65308    1.000
    Si1442   Si       0.11847    0.00596    0.63836    1.000
    N1443    N        0.10575    0.95092    0.67868    1.000
    N1444    N        0.05029    0.97488    0.79189    1.000
    Si1445   Si       0.04483    0.99492    0.75452    1.000
    N1446    N        0.18476    0.99354    0.83061    1.000
    Si1447   Si       0.22494    0.98260    0.82212    1.000
    Si1448   Si       0.15215    0.96590    0.83388    1.000
    N1449    N        0.18483    0.97376    0.75079    1.000
    N1450    N        0.12841    0.98723    0.86425    1.000
    N1451    N        0.06155    0.99177    0.87480    1.000
    N1452    N        0.99258    0.97770    0.88547    1.000
    Si1453   Si       0.04225    0.99707    0.98374    1.000
    N1454    N        0.00678    0.98503    0.96042    1.000
    N1455    N        0.06548    0.96188    0.98532    1.000
    Si1456   Si       0.00531    0.96345    0.92402    1.000
    Si1457   Si       0.13254    0.95392    0.89083    1.000
    Si1458   Si       0.22954    0.00378    0.89244    1.000
    N1459    N        0.14165    0.96006    0.93079    1.000
    Si1460   Si       0.16628    0.99621    0.93609    1.000
    N1461    N        0.19845    0.97764    0.96206    1.000
    Si1462   Si       0.20987    0.00961    0.98985    1.000
    N1463    N        0.18570    0.00840    0.89692    1.000
    N1464    N        0.26509    0.03829    0.07013    1.000
    Si1465   Si       0.28750    0.03203    0.10946    1.000
    Si1466   Si       0.30319    0.02771    0.04846    1.000
    Si1467   Si       0.35442    0.04163    0.00132    1.000
    N1468    N        0.31967    0.05779    0.02277    1.000
    N1469    N        0.31966    0.01281    0.08632    1.000
    N1470    N        0.40059    0.05398    0.05855    1.000
    Si1471   Si       0.47166    0.03806    0.00663    1.000
    N1472    N        0.44559    0.04509    0.10986    1.000
    Si1473   Si       0.40606    0.01363    0.04892    1.000
    Si1474   Si       0.48646    0.06519    0.11596    1.000
    N1475    N        0.25614    0.02586    0.18931    1.000
    Si1476   Si       0.24795    0.01925    0.23143    1.000
    Si1477   Si       0.35312    0.01561    0.22603    1.000
    Si1478   Si       0.26951    0.06589    0.17790    1.000
    N1479    N        0.28221    0.06591    0.13639    1.000
    Si1480   Si       0.29781    0.06754    0.24125    1.000
    N1481    N        0.38724    0.03884    0.20625    1.000
    Si1482   Si       0.42055    0.03213    0.23315    1.000
    Si1483   Si       0.48308    0.01551    0.23399    1.000
    N1484    N        0.46037    0.04726    0.21576    1.000
    Si1485   Si       0.41252    0.07005    0.10015    1.000
    Si1486   Si       0.39015    0.06826    0.17531    1.000
    N1487    N        0.31833    0.02860    0.35215    1.000
    Si1488   Si       0.27367    0.03182    0.35605    1.000
    N1489    N        0.25625    0.05804    0.25592    1.000
    N1490    N        0.27435    0.01471    0.30569    1.000
    Si1491   Si       0.34264    0.06381    0.35122    1.000
    Si1492   Si       0.24511    0.04770    0.29897    1.000
    N1493    N        0.32207    0.03421    0.25085    1.000
    N1494    N        0.40182    0.02204    0.31468    1.000
    Si1495   Si       0.39873    0.01484    0.35583    1.000
    N1496    N        0.41487    0.06148    0.26443    1.000
    N1497    N        0.38321    0.05460    0.36685    1.000
    Si1498   Si       0.39248    0.06513    0.30485    1.000
    N1499    N        0.26914    0.03773    0.40131    1.000
    Si1500   Si       0.29674    0.03010    0.43198    1.000
    N1501    N        0.28061    0.01346    0.46927    1.000
    N1502    N        0.47137    0.05093    0.48092    1.000
    N1503    N        0.40612    0.03477    0.48721    1.000
    N1504    N        0.43584    0.05543    0.41980    1.000
    Si1505   Si       0.45808    0.01659    0.41199    1.000
    Si1506   Si       0.44433    0.01648    0.48553    1.000
    N1507    N        0.26116    0.06892    0.33648    1.000
    N1508    N        0.29316    0.04060    0.54492    1.000
    Si1509   Si       0.33278    0.05264    0.52845    1.000
    Si1510   Si       0.29862    0.01871    0.58184    1.000
    N1511    N        0.31061    0.04739    0.61258    1.000
    N1512    N        0.35757    0.05712    0.56507    1.000
    N1513    N        0.34332    0.01417    0.50455    1.000
    Si1514   Si       0.25978    0.06537    0.53315    1.000
    N1515    N        0.46237    0.02141    0.59062    1.000
    Si1516   Si       0.36709    0.01712    0.58092    1.000
    N1517    N        0.27466    0.03586    0.73095    1.000
    N1518    N        0.32590    0.05295    0.68872    1.000
    N1519    N        0.26750    0.02972    0.66593    1.000
    Si1520   Si       0.31545    0.02129    0.71583    1.000
    Si1521   Si       0.29989    0.05679    0.65570    1.000
    Si1522   Si       0.24448    0.04327    0.69973    1.000
    N1523    N        0.35107    0.01196    0.74119    1.000
    Si1524   Si       0.39506    0.02377    0.65530    1.000
    N1525    N        0.48557    0.02879    0.70865    1.000
    Si1526   Si       0.46347    0.03263    0.63181    1.000
    Si1527   Si       0.47625    0.06192    0.73735    1.000
    N1528    N        0.39246    0.06463    0.66855    1.000
    Si1529   Si       0.27625    0.02909    0.77460    1.000
    N1530    N        0.31597    0.04496    0.78821    1.000
    N1531    N        0.28260    0.05529    0.84816    1.000
    N1532    N        0.38912    0.06790    0.99073    1.000
    Si1533   Si       0.34089    0.01058    0.78519    1.000
    Si1534   Si       0.38284    0.06298    0.94807    1.000
    N1535    N        0.46605    0.02545    0.82288    1.000
    N1536    N        0.38392    0.03491    0.79724    1.000
    Si1537   Si       0.44295    0.04608    0.85149    1.000
    Si1538   Si       0.39602    0.03974    0.75373    1.000
    N1539    N        0.41076    0.01466    0.86164    1.000
    N1540    N        0.43406    0.06221    0.75494    1.000
    N1541    N        0.32062    0.01710    0.89570    1.000
    N1542    N        0.34549    0.03954    0.95658    1.000
    Si1543   Si       0.31573    0.05548    0.87844    1.000
    N1544    N        0.27905    0.03876    0.96110    1.000
    Si1545   Si       0.24548    0.06119    0.94136    1.000
    Si1546   Si       0.31075    0.06315    0.94919    1.000
    N1547    N        0.41409    0.04489    0.92625    1.000
    N1548    N        0.46515    0.05955    0.88632    1.000
    N1549    N        0.46896    0.03852    0.96364    1.000
    Si1550   Si       0.45463    0.06307    0.92871    1.000
    N1551    N        0.29532    0.09733    0.07576    1.000
    Si1552   Si       0.29856    0.09803    0.01447    1.000
    N1553    N        0.25378    0.09687    0.02133    1.000
    Si1554   Si       0.25062    0.08057    0.06189    1.000
    N1555    N        0.35851    0.12121    0.08203    1.000
    Si1556   Si       0.27927    0.10410    0.11732    1.000
    Si1557   Si       0.41435    0.07919    0.02410    1.000
    N1558    N        0.42721    0.10870    0.09068    1.000
    N1559    N        0.45784    0.07543    0.02424    1.000
    N1560    N        0.40571    0.12103    0.02645    1.000
    N1561    N        0.48518    0.10728    0.12775    1.000
    N1562    N        0.32379    0.11994    0.14162    1.000
    Si1563   Si       0.32263    0.11417    0.18635    1.000
    N1564    N        0.30276    0.07865    0.19988    1.000
    Si1565   Si       0.36258    0.11296    0.12402    1.000
    N1566    N        0.24104    0.09732    0.17817    1.000
    N1567    N        0.36494    0.10594    0.19022    1.000
    N1568    N        0.42745    0.09408    0.17977    1.000
    Si1569   Si       0.46095    0.08903    0.20734    1.000
    N1570    N        0.38132    0.07400    0.13214    1.000
    Si1571   Si       0.40056    0.12730    0.18131    1.000
    Si1572   Si       0.33309    0.11425    0.29470    1.000
    Si1573   Si       0.28361    0.10733    0.35026    1.000
    N1574    N        0.35329    0.08028    0.31195    1.000
    N1575    N        0.30817    0.10463    0.26092    1.000
    Si1576   Si       0.38414    0.06906    0.47061    1.000
    N1577    N        0.41790    0.10489    0.30909    1.000
    Si1578   Si       0.44823    0.08490    0.28129    1.000
    N1579    N        0.46884    0.12244    0.35471    1.000
    Si1580   Si       0.42573    0.12511    0.34924    1.000
    N1581    N        0.46407    0.10780    0.24892    1.000
    N1582    N        0.48178    0.06836    0.31015    1.000
    N1583    N        0.31727    0.09006    0.37433    1.000
    Si1584   Si       0.33269    0.09014    0.41619    1.000
    Si1585   Si       0.27223    0.09874    0.46142    1.000
    N1586    N        0.30263    0.07313    0.44324    1.000
    N1587    N        0.36749    0.06946    0.42956    1.000
    Si1588   Si       0.45190    0.07863    0.45462    1.000
    N1589    N        0.40060    0.11613    0.38499    1.000
    N1590    N        0.41491    0.09841    0.46902    1.000
    Si1591   Si       0.39939    0.07460    0.40141    1.000
    N1592    N        0.48338    0.10039    0.43352    1.000
    N1593    N        0.24471    0.12647    0.35642    1.000
    N1594    N        0.27618    0.10236    0.56972    1.000
    Si1595   Si       0.30610    0.08923    0.60019    1.000
    N1596    N        0.34526    0.10713    0.60859    1.000
    N1597    N        0.27457    0.09423    0.50443    1.000
    N1598    N        0.35355    0.08298    0.50255    1.000
    Si1599   Si       0.36142    0.12148    0.52313    1.000
    Si1600   Si       0.37626    0.09115    0.58457    1.000
    N1601    N        0.41214    0.09124    0.60605    1.000
    N1602    N        0.38913    0.11855    0.55396    1.000
    N1603    N        0.45886    0.12501    0.54728    1.000
    Si1604   Si       0.42607    0.12435    0.57800    1.000
    N1605    N        0.35191    0.12038    0.67560    1.000
    N1606    N        0.28614    0.09499    0.64099    1.000
    Si1607   Si       0.36002    0.08056    0.69264    1.000
    Si1608   Si       0.41978    0.09049    0.64972    1.000
    N1609    N        0.47707    0.10502    0.72885    1.000
    N1610    N        0.37269    0.07438    0.73279    1.000
    N1611    N        0.45744    0.07074    0.64977    1.000
    Si1612   Si       0.26041    0.11019    0.77998    1.000
    N1613    N        0.29758    0.11165    0.80448    1.000
    N1614    N        0.25755    0.11146    0.86515    1.000
    Si1615   Si       0.30871    0.07226    0.81955    1.000
    N1616    N        0.25317    0.06949    0.78640    1.000
    Si1617   Si       0.24521    0.06908    0.86280    1.000
    N1618    N        0.36500    0.10500    0.79867    1.000
    Si1619   Si       0.36988    0.11105    0.75615    1.000
    Si1620   Si       0.44053    0.10698    0.75583    1.000
    N1621    N        0.41939    0.08068    0.83889    1.000
    Si1622   Si       0.38036    0.07117    0.82133    1.000
    Si1623   Si       0.44025    0.11973    0.83343    1.000
    N1624    N        0.45644    0.11874    0.79380    1.000
    N1625    N        0.24235    0.10456    0.93302    1.000
    N1626    N        0.31229    0.09900    0.97232    1.000
    Si1627   Si       0.27650    0.11558    0.90445    1.000
    N1628    N        0.30054    0.08065    0.91111    1.000
    Si1629   Si       0.48794    0.09715    0.89108    1.000
    N1630    N        0.37193    0.09893    0.92796    1.000
    N1631    N        0.47213    0.10257    0.93154    1.000
    N1632    N        0.34527    0.06696    0.84627    1.000
    N1633    N        0.30644    0.16561    0.09054    1.000
    N1634    N        0.31598    0.13846    0.02657    1.000
    Si1635   Si       0.30181    0.17695    0.01186    1.000
    Si1636   Si       0.31816    0.13222    0.06838    1.000
    Si1637   Si       0.43957    0.17924    0.22887    1.000
    N1638    N        0.40453    0.17356    0.07943    1.000
    Si1639   Si       0.48106    0.16258    0.02922    1.000
    N1640    N        0.48302    0.13383    0.06158    1.000
    Si1641   Si       0.46409    0.13315    0.09914    1.000
    Si1642   Si       0.39783    0.13140    0.06875    1.000
    N1643    N        0.45434    0.17068    0.12185    1.000
    Si1644   Si       0.41033    0.17551    0.12323    1.000
    Si1645   Si       0.30534    0.16000    0.13397    1.000
    Si1646   Si       0.25553    0.13786    0.17986    1.000
    N1647    N        0.29664    0.14751    0.20239    1.000
    N1648    N        0.26534    0.14309    0.13706    1.000
    N1649    N        0.35517    0.18102    0.21297    1.000
    N1650    N        0.48105    0.17050    0.22172    1.000
    N1651    N        0.41688    0.16045    0.19764    1.000
    N1652    N        0.38879    0.14271    0.14144    1.000
    N1653    N        0.30776    0.17243    0.26669    1.000
    Si1654   Si       0.29696    0.17317    0.31012    1.000
    Si1655   Si       0.35032    0.17667    0.25589    1.000
    N1656    N        0.24419    0.13399    0.26049    1.000
    N1657    N        0.30311    0.13092    0.32155    1.000
    N1658    N        0.25328    0.18187    0.31218    1.000
    N1659    N        0.37561    0.15098    0.49569    1.000
    N1660    N        0.36468    0.14326    0.28047    1.000
    N1661    N        0.41841    0.16745    0.33157    1.000
    Si1662   Si       0.40554    0.14298    0.29413    1.000
    N1663    N        0.42758    0.17039    0.26938    1.000
    N1664    N        0.48867    0.17853    0.29495    1.000
    N1665    N        0.27821    0.14013    0.45261    1.000
    Si1666   Si       0.31177    0.15808    0.43229    1.000
    Si1667   Si       0.24664    0.16167    0.47514    1.000
    N1668    N        0.29413    0.17933    0.39576    1.000
    N1669    N        0.34448    0.13083    0.42470    1.000
    Si1670   Si       0.48348    0.13965    0.45443    1.000
    N1671    N        0.45462    0.15223    0.48353    1.000
    Si1672   Si       0.38153    0.14721    0.40777    1.000
    N1673    N        0.48367    0.17392    0.42702    1.000
    Si1674   Si       0.41219    0.14059    0.47590    1.000
    N1675    N        0.36818    0.17521    0.37909    1.000
    N1676    N        0.41290    0.15783    0.43664    1.000
    Si1677   Si       0.35575    0.18809    0.49014    1.000
    Si1678   Si       0.28660    0.13976    0.24788    1.000
    N1679    N        0.26087    0.16090    0.51813    1.000
    N1680    N        0.32344    0.14195    0.53756    1.000
    Si1681   Si       0.28310    0.12665    0.53344    1.000
    N1682    N        0.43824    0.15228    0.60760    1.000
    N1683    N        0.29629    0.15508    0.62563    1.000
    N1684    N        0.26947    0.12887    0.74261    1.000
    N1685    N        0.25775    0.15187    0.67778    1.000
    Si1686   Si       0.33353    0.13769    0.63850    1.000
    Si1687   Si       0.26132    0.13148    0.63972    1.000
    Si1688   Si       0.30018    0.15861    0.74243    1.000
    N1689    N        0.35998    0.17540    0.64011    1.000
    N1690    N        0.30918    0.18435    0.70839    1.000
    N1691    N        0.38009    0.17923    0.70723    1.000
    N1692    N        0.41900    0.13041    0.66706    1.000
    Si1693   Si       0.41152    0.17427    0.73591    1.000
    Si1694   Si       0.45218    0.15246    0.65050    1.000
    Si1695   Si       0.38204    0.15295    0.67322    1.000
    Si1696   Si       0.48745    0.14888    0.51816    1.000
    Si1697   Si       0.32088    0.18408    0.55316    1.000
    N1698    N        0.31880    0.14759    0.84829    1.000
    Si1699   Si       0.27362    0.13933    0.83524    1.000
    Si1700   Si       0.33617    0.13629    0.81018    1.000
    N1701    N        0.35475    0.17485    0.79976    1.000
    N1702    N        0.26354    0.18192    0.84092    1.000
    N1703    N        0.40977    0.15191    0.83479    1.000
    N1704    N        0.46879    0.12736    0.86578    1.000
    Si1705   Si       0.39924    0.17688    0.86920    1.000
    N1706    N        0.40765    0.13144    0.74546    1.000
    N1707    N        0.24132    0.16332    0.90403    1.000
    Si1708   Si       0.27129    0.17601    0.93238    1.000
    N1709    N        0.35575    0.16039    0.95961    1.000
    Si1710   Si       0.32990    0.16691    0.88511    1.000
    N1711    N        0.28470    0.16679    0.97446    1.000
    N1712    N        0.30358    0.14809    0.91806    1.000
    Si1713   Si       0.31763    0.14134    0.95969    1.000
    N1714    N        0.46348    0.14647    0.99276    1.000
    N1715    N        0.37057    0.16007    0.89355    1.000
    Si1716   Si       0.38184    0.14128    0.93078    1.000
    Si1717   Si       0.47197    0.16918    0.87887    1.000
    Si1718   Si       0.46529    0.14499    0.94856    1.000
    N1719    N        0.42159    0.14897    0.94850    1.000
    N1720    N        0.48313    0.17654    0.92131    1.000
    Si1721   Si       0.41823    0.14751    0.99375    1.000
    N1722    N        0.33594    0.13412    0.74728    1.000
    N1723    N        0.27854    0.23018    0.10455    1.000
    N1724    N        0.27861    0.20382    0.03566    1.000
    Si1725   Si       0.24879    0.23290    0.01834    1.000
    Si1726   Si       0.27668    0.19520    0.07799    1.000
    N1727    N        0.33253    0.20599    0.00231    1.000
    N1728    N        0.34822    0.24201    0.11137    1.000
    N1729    N        0.39014    0.23558    0.05158    1.000
    Si1730   Si       0.47561    0.23131    0.05359    1.000
    Si1731   Si       0.41062    0.19908    0.04271    1.000
    N1732    N        0.45575    0.19531    0.04099    1.000
    N1733    N        0.46152    0.23584    0.09547    1.000
    N1734    N        0.39843    0.18402    0.00356    1.000
    N1735    N        0.23791    0.20802    0.21976    1.000
    Si1736   Si       0.31179    0.23244    0.13425    1.000
    N1737    N        0.30496    0.22734    0.21340    1.000
    N1738    N        0.31300    0.19654    0.15669    1.000
    Si1739   Si       0.31418    0.18848    0.19961    1.000
    Si1740   Si       0.26527    0.23888    0.22906    1.000
    Si1741   Si       0.47652    0.20877    0.12713    1.000
    Si1742   Si       0.38991    0.19697    0.19164    1.000
    N1743    N        0.39552    0.20750    0.14886    1.000
    N1744    N        0.41652    0.21794    0.22021    1.000
    N1745    N        0.47127    0.21724    0.17062    1.000
    Si1746   Si       0.44775    0.24191    0.19754    1.000
    Si1747   Si       0.31397    0.24433    0.01221    1.000
    N1748    N        0.32344    0.20006    0.33248    1.000
    Si1749   Si       0.35469    0.22431    0.31392    1.000
    Si1750   Si       0.24948    0.22579    0.30526    1.000
    N1751    N        0.27371    0.24050    0.27142    1.000
    N1752    N        0.37024    0.21155    0.27490    1.000
    Si1753   Si       0.40323    0.23238    0.26032    1.000
    N1754    N        0.38902    0.23141    0.33861    1.000
    N1755    N        0.46864    0.21217    0.34190    1.000
    Si1756   Si       0.40141    0.19523    0.36028    1.000
    N1757    N        0.43874    0.23352    0.28587    1.000
    Si1758   Si       0.44682    0.19327    0.30425    1.000
    Si1759   Si       0.33100    0.19861    0.37499    1.000
    Si1760   Si       0.25799    0.20018    0.40536    1.000
    N1761    N        0.34526    0.23121    0.40085    1.000
    Si1762   Si       0.35190    0.23147    0.44562    1.000
    N1763    N        0.33358    0.19017    0.45127    1.000
    N1764    N        0.26717    0.24309    0.40170    1.000
    Si1765   Si       0.45624    0.23297    0.37673    1.000
    N1766    N        0.44876    0.22248    0.46110    1.000
    Si1767   Si       0.44160    0.19033    0.43274    1.000
    N1768    N        0.38213    0.21914    0.47590    1.000
    N1769    N        0.42885    0.20524    0.39335    1.000
    Si1770   Si       0.42093    0.22945    0.49347    1.000
    N1771    N        0.32752    0.20678    0.51517    1.000
    Si1772   Si       0.27739    0.19530    0.61477    1.000
    N1773    N        0.35413    0.19887    0.57425    1.000
    Si1774   Si       0.24506    0.19861    0.53959    1.000
    N1775    N        0.28177    0.19522    0.56986    1.000
    N1776    N        0.25728    0.22392    0.50215    1.000
    Si1777   Si       0.30073    0.23783    0.49983    1.000
    N1778    N        0.45557    0.19490    0.65200    1.000
    Si1779   Si       0.36601    0.21086    0.61612    1.000
    N1780    N        0.42628    0.21605    0.53435    1.000
    Si1781   Si       0.46829    0.21774    0.54742    1.000
    N1782    N        0.40657    0.21548    0.60152    1.000
    Si1783   Si       0.39082    0.22185    0.56072    1.000
    N1784    N        0.47569    0.20406    0.58790    1.000
    Si1785   Si       0.44301    0.19577    0.61113    1.000
    N1786    N        0.24275    0.21489    0.69998    1.000
    Si1787   Si       0.34584    0.20625    0.70943    1.000
    N1788    N        0.29168    0.21856    0.65116    1.000
    Si1789   Si       0.27468    0.19233    0.68125    1.000
    N1790    N        0.44566    0.19602    0.72059    1.000
    Si1791   Si       0.44759    0.22213    0.68491    1.000
    Si1792   Si       0.33058    0.20668    0.78320    1.000
    Si1793   Si       0.26027    0.20304    0.80337    1.000
    Si1794   Si       0.34797    0.23458    0.85126    1.000
    N1795    N        0.32744    0.23788    0.81282    1.000
    N1796    N        0.34920    0.22514    0.74932    1.000
    N1797    N        0.48806    0.20839    0.78327    1.000
    N1798    N        0.29026    0.19099    0.77257    1.000
    Si1799   Si       0.45223    0.21380    0.76009    1.000
    N1800    N        0.38549    0.21198    0.84454    1.000
    N1801    N        0.41712    0.19623    0.77593    1.000
    Si1802   Si       0.48567    0.22427    0.82330    1.000
    Si1803   Si       0.39427    0.18484    0.81058    1.000
    Si1804   Si       0.43573    0.23887    0.87018    1.000
    N1805    N        0.47713    0.24555    0.88880    1.000
    N1806    N        0.27295    0.21860    0.92557    1.000
    N1807    N        0.32725    0.20943    0.88202    1.000
    Si1808   Si       0.30310    0.23909    0.90325    1.000
    N1809    N        0.43504    0.19589    0.88280    1.000
    N1810    N        0.37652    0.23380    0.95451    1.000
    Si1811   Si       0.48167    0.22185    0.92307    1.000
    N1812    N        0.45463    0.23476    0.95485    1.000
    Si1813   Si       0.36641    0.19831    0.97808    1.000
    Si1814   Si       0.28322    0.26271    0.07684    1.000
    Si1815   Si       0.35750    0.25582    0.07099    1.000
    N1816    N        0.31817    0.25521    0.05187    1.000
    N1817    N        0.29477    0.29808    0.10046    1.000
    N1818    N        0.24539    0.26056    0.05022    1.000
    N1819    N        0.47454    0.28728    0.14308    1.000
    N1820    N        0.37018    0.29641    0.06159    1.000
    N1821    N        0.47139    0.26518    0.02603    1.000
    Si1822   Si       0.44716    0.27395    0.11138    1.000
    N1823    N        0.40323    0.27767    0.12141    1.000
    N1824    N        0.31800    0.30054    0.22042    1.000
    Si1825   Si       0.32094    0.26375    0.19784    1.000
    N1826    N        0.25586    0.28101    0.21905    1.000
    N1827    N        0.30194    0.26582    0.15926    1.000
    N1828    N        0.36359    0.26002    0.18188    1.000
    N1829    N        0.44388    0.30149    0.07915    1.000
    Si1830   Si       0.38960    0.28623    0.20616    1.000
    N1831    N        0.42851    0.28043    0.19134    1.000
    Si1832   Si       0.37936    0.24950    0.14145    1.000
    N1833    N        0.47518    0.24900    0.22953    1.000
    N1834    N        0.34230    0.27420    0.99572    1.000
    Si1835   Si       0.29657    0.26452    0.30118    1.000
    N1836    N        0.34068    0.26596    0.30398    1.000
    N1837    N        0.26800    0.25087    0.33443    1.000
    Si1838   Si       0.25395    0.26974    0.36926    1.000
    Si1839   Si       0.37251    0.29051    0.28323    1.000
    Si1840   Si       0.40170    0.27239    0.34268    1.000
    Si1841   Si       0.46901    0.26014    0.27041    1.000
    N1842    N        0.40835    0.29651    0.30468    1.000
    N1843    N        0.43645    0.26987    0.36820    1.000
    N1844    N        0.37432    0.29400    0.36822    1.000
    N1845    N        0.31228    0.29137    0.40464    1.000
    Si1846   Si       0.28487    0.26937    0.43155    1.000
    Si1847   Si       0.35212    0.27405    0.39987    1.000
    N1848    N        0.24688    0.27371    0.45758    1.000
    N1849    N        0.31264    0.25210    0.46064    1.000
    Si1850   Si       0.47478    0.25530    0.44647    1.000
    Si1851   Si       0.40678    0.28596    0.46039    1.000
    Si1852   Si       0.45368    0.29897    0.39633    1.000
    N1853    N        0.44574    0.28618    0.43857    1.000
    N1854    N        0.37351    0.27105    0.43867    1.000
    N1855    N        0.41802    0.27283    0.49955    1.000
    N1856    N        0.38731    0.27172    0.24646    1.000
    N1857    N        0.29233    0.27137    0.52666    1.000
    Si1858   Si       0.24803    0.26445    0.52530    1.000
    Si1859   Si       0.36071    0.28242    0.59622    1.000
    N1860    N        0.37535    0.26113    0.56006    1.000
    N1861    N        0.47095    0.26098    0.55056    1.000
    Si1862   Si       0.45011    0.29171    0.52472    1.000
    Si1863   Si       0.38735    0.28887    0.53058    1.000
    Si1864   Si       0.26166    0.30505    0.66168    1.000
    N1865    N        0.41235    0.24456    0.67588    1.000
    N1866    N        0.35429    0.25243    0.62793    1.000
    N1867    N        0.29532    0.29160    0.63900    1.000
    N1868    N        0.25953    0.28588    0.70007    1.000
    Si1869   Si       0.31552    0.25330    0.65303    1.000
    Si1870   Si       0.34089    0.26450    0.73273    1.000
    N1871    N        0.34086    0.24805    0.69095    1.000
    Si1872   Si       0.28182    0.30242    0.73273    1.000
    Si1873   Si       0.37748    0.26587    0.66586    1.000
    Si1874   Si       0.48088    0.27548    0.72972    1.000
    N1875    N        0.36714    0.29916    0.74014    1.000
    N1876    N        0.48047    0.25155    0.69126    1.000
    Si1877   Si       0.30044    0.26812    0.79880    1.000
    N1878    N        0.30375    0.27406    0.75554    1.000
    Si1879   Si       0.24767    0.25408    0.84969    1.000
    Si1880   Si       0.31053    0.29499    0.86560    1.000
    N1881    N        0.34764    0.27234    0.87064    1.000
    N1882    N        0.28420    0.26142    0.87053    1.000
    Si1883   Si       0.44180    0.27681    0.79619    1.000
    N1884    N        0.44773    0.25809    0.75588    1.000
    N1885    N        0.40254    0.29241    0.80216    1.000
    N1886    N        0.24718    0.27889    0.92413    1.000
    Si1887   Si       0.27780    0.27979    0.95640    1.000
    N1888    N        0.31485    0.26697    0.93381    1.000
    Si1889   Si       0.35212    0.26904    0.95497    1.000
    N1890    N        0.27483    0.25136    0.99016    1.000
    N1891    N        0.44822    0.24636    0.82919    1.000
    N1892    N        0.41223    0.26102    0.89931    1.000
    Si1893   Si       0.38157    0.29144    0.89203    1.000
    N1894    N        0.37389    0.30243    0.93436    1.000
    N1895    N        0.48181    0.30072    0.96476    1.000
    Si1896   Si       0.41377    0.25364    0.94336    1.000
    Si1897   Si       0.46074    0.26810    0.98428    1.000
    N1898    N        0.42011    0.28175    0.97651    1.000
    N1899    N        0.26178    0.24760    0.80936    1.000
    N1900    N        0.30913    0.32797    0.03522    1.000
    Si1901   Si       0.29634    0.33400    0.07611    1.000
    N1902    N        0.25315    0.34189    0.07731    1.000
    Si1903   Si       0.29068    0.34607    0.00168    1.000
    Si1904   Si       0.34626    0.30456    0.02586    1.000
    N1905    N        0.33070    0.35585    0.09201    1.000
    N1906    N        0.25026    0.36097    0.01205    1.000
    N1907    N        0.44351    0.33273    0.01988    1.000
    N1908    N        0.39976    0.35448    0.07629    1.000
    Si1909   Si       0.40168    0.31104    0.08664    1.000
    Si1910   Si       0.46760    0.30445    0.04401    1.000
    N1911    N        0.36987    0.33348    0.99979    1.000
    N1912    N        0.37688    0.32797    0.19885    1.000
    N1913    N        0.31630    0.33657    0.15811    1.000
    Si1914   Si       0.33354    0.33626    0.20065    1.000
    N1915    N        0.25118    0.30918    0.14856    1.000
    Si1916   Si       0.28011    0.30827    0.24149    1.000
    Si1917   Si       0.29252    0.30365    0.14319    1.000
    N1918    N        0.25175    0.34491    0.24771    1.000
    Si1919   Si       0.45324    0.30958    0.17293    1.000
    N1920    N        0.43166    0.34309    0.15474    1.000
    Si1921   Si       0.39805    0.35901    0.17742    1.000
    N1922    N        0.48140    0.32753    0.20064    1.000
    N1923    N        0.32167    0.33449    0.34723    1.000
    Si1924   Si       0.31632    0.33136    0.30415    1.000
    N1925    N        0.35470    0.32947    0.28428    1.000
    Si1926   Si       0.25018    0.35619    0.28968    1.000
    Si1927   Si       0.36295    0.33616    0.36641    1.000
    N1928    N        0.25970    0.31440    0.36863    1.000
    N1929    N        0.28983    0.30268    0.28549    1.000
    Si1930   Si       0.44009    0.32519    0.29441    1.000
    N1931    N        0.45995    0.33655    0.33135    1.000
    N1932    N        0.46683    0.30454    0.26615    1.000
    Si1933   Si       0.43214    0.35915    0.35697    1.000
    Si1934   Si       0.38049    0.36228    0.29853    1.000
    N1935    N        0.39110    0.35606    0.33949    1.000
    N1936    N        0.33173    0.35999    0.47032    1.000
    Si1937   Si       0.29634    0.32666    0.38293    1.000
    N1938    N        0.29051    0.35408    0.41577    1.000
    N1939    N        0.36200    0.34947    0.40649    1.000
    Si1940   Si       0.40199    0.34634    0.42549    1.000
    N1941    N        0.43191    0.33689    0.39464    1.000
    Si1942   Si       0.36699    0.34390    0.48867    1.000
    N1943    N        0.39753    0.32773    0.46374    1.000
    Si1944   Si       0.29805    0.31972    0.60470    1.000
    Si1945   Si       0.25281    0.32962    0.54189    1.000
    N1946    N        0.28768    0.33956    0.52004    1.000
    N1947    N        0.35470    0.31307    0.51427    1.000
    N1948    N        0.25993    0.31157    0.58171    1.000
    Si1949   Si       0.31655    0.30745    0.53384    1.000
    N1950    N        0.32828    0.30433    0.57692    1.000
    N1951    N        0.39239    0.31119    0.60799    1.000
    Si1952   Si       0.42863    0.32726    0.58696    1.000
    N1953    N        0.47175    0.31504    0.59649    1.000
    N1954    N        0.47994    0.31901    0.51219    1.000
    N1955    N        0.42037    0.31236    0.54704    1.000
    N1956    N        0.47941    0.31785    0.72058    1.000
    N1957    N        0.26798    0.34790    0.66554    1.000
    N1958    N        0.31430    0.32201    0.70861    1.000
    Si1959   Si       0.35778    0.32394    0.70711    1.000
    N1960    N        0.43646    0.33507    0.65254    1.000
    Si1961   Si       0.30029    0.36006    0.69216    1.000
    Si1962   Si       0.47434    0.33821    0.63285    1.000
    Si1963   Si       0.39574    0.33289    0.64501    1.000
    N1964    N        0.37467    0.30819    0.67146    1.000
    Si1965   Si       0.32679    0.34191    0.81542    1.000
    N1966    N        0.25305    0.32836    0.75560    1.000
    N1967    N        0.30875    0.30344    0.82308    1.000
    N1968    N        0.33622    0.36199    0.85545    1.000
    N1969    N        0.36321    0.34896    0.79461    1.000
    Si1970   Si       0.38736    0.31925    0.77431    1.000
    Si1971   Si       0.46131    0.33857    0.75657    1.000
    N1972    N        0.47182    0.30859    0.78862    1.000
    N1973    N        0.41832    0.34457    0.75725    1.000
    N1974    N        0.48222    0.31316    0.86463    1.000
    N1975    N        0.39496    0.32689    0.87383    1.000
    N1976    N        0.42790    0.34679    0.95366    1.000
    N1977    N        0.28690    0.32028    0.96750    1.000
    N1978    N        0.28676    0.32557    0.88569    1.000
    Si1979   Si       0.24673    0.30767    0.89065    1.000
    Si1980   Si       0.39748    0.31860    0.96829    1.000
    Si1981   Si       0.46060    0.33550    0.97958    1.000
    N1982    N        0.35393    0.41418    0.10143    1.000
    Si1983   Si       0.36355    0.37909    0.07464    1.000
    N1984    N        0.36604    0.39668    0.03511    1.000
    N1985    N        0.43751    0.40038    0.03486    1.000
    N1986    N        0.46329    0.36736    0.09100    1.000
    Si1987   Si       0.43708    0.36199    0.05385    1.000
    N1988    N        0.29966    0.40029    0.13079    1.000
    N1989    N        0.25032    0.39493    0.19146    1.000
    Si1990   Si       0.33044    0.37004    0.13293    1.000
    N1991    N        0.32354    0.36767    0.22486    1.000
    Si1992   Si       0.27853    0.41646    0.16604    1.000
    Si1993   Si       0.44883    0.37525    0.13130    1.000
    N1994    N        0.48621    0.38349    0.15367    1.000
    N1995    N        0.36729    0.37832    0.15375    1.000
    Si1996   Si       0.37975    0.41580    0.13784    1.000
    N1997    N        0.42108    0.40832    0.12255    1.000
    N1998    N        0.41653    0.39343    0.19655    1.000
    Si1999   Si       0.35443    0.37368    0.00059    1.000
    Si2000   Si       0.31783    0.38714    0.26283    1.000
    N2001    N        0.35295    0.39598    0.28766    1.000
    N2002    N        0.29320    0.36658    0.29322    1.000
    Si2003   Si       0.42972    0.40978    0.29087    1.000
    N2004    N        0.42193    0.36402    0.28203    1.000
    N2005    N        0.46916    0.41451    0.31147    1.000
    N2006    N        0.44347    0.39952    0.37072    1.000
    Si2007   Si       0.32968    0.36598    0.42916    1.000
    N2008    N        0.24850    0.40780    0.41369    1.000
    N2009    N        0.29409    0.41601    0.48605    1.000
    N2010    N        0.33067    0.40743    0.41981    1.000
    Si2011   Si       0.24519    0.36245    0.41240    1.000
    Si2012   Si       0.43279    0.41395    0.41449    1.000
    Si2013   Si       0.41743    0.39714    0.48275    1.000
    N2014    N        0.41563    0.38454    0.44063    1.000
    Si2015   Si       0.48325    0.40718    0.35178    1.000
    N2016    N        0.32157    0.38996    0.53898    1.000
    N2017    N        0.25604    0.40789    0.56227    1.000
    Si2018   Si       0.29659    0.39906    0.57229    1.000
    Si2019   Si       0.30386    0.37698    0.50208    1.000
    Si2020   Si       0.36259    0.40321    0.53817    1.000
    N2021    N        0.29683    0.36360    0.60347    1.000
    N2022    N        0.37010    0.41292    0.57980    1.000
    N2023    N        0.38663    0.37960    0.50890    1.000
    Si2024   Si       0.46163    0.40107    0.59136    1.000
    N2025    N        0.45455    0.39119    0.50584    1.000
    N2026    N        0.42929    0.37072    0.58782    1.000
    Si2027   Si       0.39931    0.39867    0.60766    1.000
    N2028    N        0.37129    0.36634    0.70737    1.000
    Si2029   Si       0.29991    0.39647    0.63320    1.000
    N2030    N        0.32189    0.38841    0.66729    1.000
    N2031    N        0.28182    0.37827    0.72611    1.000
    N2032    N        0.26128    0.41251    0.64651    1.000
    Si2033   Si       0.36377    0.39724    0.67402    1.000
    Si2034   Si       0.24438    0.40230    0.72432    1.000
    N2035    N        0.38473    0.37664    0.64128    1.000
    Si2036   Si       0.40003    0.38022    0.73614    1.000
    Si2037   Si       0.47015    0.39919    0.71658    1.000
    N2038    N        0.42821    0.40154    0.71085    1.000
    Si2039   Si       0.48804    0.36341    0.51215    1.000
    N2040    N        0.30013    0.37301    0.79561    1.000
    Si2041   Si       0.26969    0.36632    0.76738    1.000
    Si2042   Si       0.31053    0.41694    0.79922    1.000
    N2043    N        0.40309    0.38842    0.83884    1.000
    Si2044   Si       0.44247    0.39663    0.85406    1.000
    N2045    N        0.38164    0.40732    0.76382    1.000
    N2046    N        0.46656    0.38648    0.82035    1.000
    Si2047   Si       0.37663    0.39191    0.80445    1.000
    N2048    N        0.47753    0.37917    0.75487    1.000
    Si2049   Si       0.23756    0.38195    0.90278    1.000
    N2050    N        0.32047    0.38184    0.92217    1.000
    Si2051   Si       0.29308    0.39491    0.95248    1.000
    N2052    N        0.27302    0.39301    0.87743    1.000
    N2053    N        0.25161    0.38628    0.94510    1.000
    N2054    N        0.31227    0.37994    0.98959    1.000
    Si2055   Si       0.30505    0.36481    0.88517    1.000
    Si2056   Si       0.35789    0.40249    0.92933    1.000
    Si2057   Si       0.37913    0.36457    0.86717    1.000
    N2058    N        0.37582    0.39529    0.96911    1.000
    N2059    N        0.38897    0.38688    0.90411    1.000
    N2060    N        0.45476    0.37258    0.89157    1.000
    Si2061   Si       0.42690    0.37906    0.92514    1.000
    N2062    N        0.43719    0.41871    0.93897    1.000
    N2063    N        0.28454    0.43988    0.07103    1.000
    Si2064   Si       0.31343    0.43313    0.10322    1.000
    N2065    N        0.27627    0.46947    0.00831    1.000
    Si2066   Si       0.29679    0.47260    0.04470    1.000
    N2067    N        0.34193    0.47525    0.05708    1.000
    Si2068   Si       0.24302    0.44576    0.07962    1.000
    N2069    N        0.30925    0.47365    0.11719    1.000
    N2070    N        0.40844    0.45330    0.06771    1.000
    N2071    N        0.47449    0.43394    0.08168    1.000
    Si2072   Si       0.43521    0.44349    0.10112    1.000
    N2073    N        0.46654    0.47102    0.02250    1.000
    Si2074   Si       0.47146    0.43078    0.03760    1.000
    Si2075   Si       0.39991    0.42356    0.03448    1.000
    Si2076   Si       0.34435    0.46127    0.18972    1.000
    N2077    N        0.25609    0.45204    0.15746    1.000
    N2078    N        0.35694    0.46467    0.23043    1.000
    N2079    N        0.30998    0.43782    0.18463    1.000
    N2080    N        0.47318    0.43613    0.19885    1.000
    N2081    N        0.41573    0.47005    0.20162    1.000
    Si2082   Si       0.39928    0.46906    0.24151    1.000
    N2083    N        0.37419    0.45229    0.15805    1.000
    Si2084   Si       0.43213    0.42884    0.21087    1.000
    N2085    N        0.43311    0.47905    0.12641    1.000
    N2086    N        0.40425    0.44936    0.99864    1.000
    N2087    N        0.27729    0.43991    0.34974    1.000
    N2088    N        0.33419    0.45747    0.30311    1.000
    Si2089   Si       0.31364    0.46131    0.34297    1.000
    N2090    N        0.34420    0.43370    0.35776    1.000
    Si2091   Si       0.26791    0.45578    0.25437    1.000
    Si2092   Si       0.32760    0.46002    0.26226    1.000
    N2093    N        0.24829    0.46355    0.29231    1.000
    Si2094   Si       0.24451    0.42961    0.32071    1.000
    N2095    N        0.29885    0.42600    0.25636    1.000
    Si2096   Si       0.36098    0.42592    0.31718    1.000
    Si2097   Si       0.41966    0.43767    0.35829    1.000
    N2098    N        0.42403    0.43240    0.25427    1.000
    N2099    N        0.44569    0.47413    0.35916    1.000
    N2100    N        0.40384    0.42637    0.32109    1.000
    N2101    N        0.47650    0.45712    0.49587    1.000
    N2102    N        0.26934    0.46390    0.44920    1.000
    Si2103   Si       0.35460    0.43832    0.39962    1.000
    Si2104   Si       0.24660    0.43708    0.38268    1.000
    N2105    N        0.33944    0.47436    0.41572    1.000
    Si2106   Si       0.26275    0.42155    0.45508    1.000
    N2107    N        0.41496    0.44005    0.48035    1.000
    N2108    N        0.39883    0.43522    0.39695    1.000
    N2109    N        0.46435    0.43666    0.43119    1.000
    Si2110   Si       0.44820    0.46101    0.46270    1.000
    N2111    N        0.28800    0.46634    0.53665    1.000
    Si2112   Si       0.35156    0.44933    0.59735    1.000
    Si2113   Si       0.24980    0.45091    0.55145    1.000
    N2114    N        0.25211    0.46918    0.59246    1.000
    Si2115   Si       0.28812    0.46257    0.61492    1.000
    N2116    N        0.35674    0.44193    0.52087    1.000
    Si2117   Si       0.31453    0.44933    0.50642    1.000
    N2118    N        0.31098    0.42579    0.60203    1.000
    Si2119   Si       0.39599    0.45777    0.51578    1.000
    Si2120   Si       0.42461    0.46307    0.58589    1.000
    N2121    N        0.42543    0.44758    0.54526    1.000
    Si2122   Si       0.46142    0.43112    0.52669    1.000
    N2123    N        0.48385    0.42401    0.56288    1.000
    N2124    N        0.43177    0.42715    0.61216    1.000
    N2125    N        0.36905    0.44280    0.63903    1.000
    N2126    N        0.28372    0.47571    0.65729    1.000
    N2127    N        0.35721    0.43129    0.70201    1.000
    N2128    N        0.25769    0.44213    0.71388    1.000
    Si2129   Si       0.25381    0.44608    0.67097    1.000
    Si2130   Si       0.35330    0.43629    0.74522    1.000
    Si2131   Si       0.36489    0.46572    0.67526    1.000
    Si2132   Si       0.28189    0.46417    0.74197    1.000
    N2133    N        0.31267    0.43758    0.76139    1.000
    N2134    N        0.25054    0.46849    0.77502    1.000
    N2135    N        0.27851    0.43233    0.82364    1.000
    Si2136   Si       0.27960    0.43384    0.86617    1.000
    N2137    N        0.34966    0.42405    0.81749    1.000
    N2138    N        0.36669    0.47701    0.75607    1.000
    Si2139   Si       0.37093    0.45753    0.83355    1.000
    N2140    N        0.40913    0.46386    0.81111    1.000
    Si2141   Si       0.43033    0.46638    0.84955    1.000
    Si2142   Si       0.47527    0.47821    0.76698    1.000
    N2143    N        0.39139    0.46182    0.87131    1.000
    N2144    N        0.45215    0.43510    0.87057    1.000
    N2145    N        0.24665    0.46020    0.87721    1.000
    Si2146   Si       0.27974    0.47487    0.96723    1.000
    N2147    N        0.31197    0.45636    0.88637    1.000
    Si2148   Si       0.32679    0.46477    0.92686    1.000
    N2149    N        0.29755    0.43932    0.94979    1.000
    Si2150   Si       0.40128    0.43061    0.95917    1.000
    N2151    N        0.36743    0.44642    0.93347    1.000
    N2152    N        0.48859    0.47236    0.91786    1.000
    Si2153   Si       0.46844    0.43162    0.91110    1.000
    Si2154   Si       0.24045    0.43253    0.79960    1.000
    N2155    N        0.43626    0.47822    0.75102    1.000
    N2156    N        0.29401    0.51410    0.06248    1.000
    Si2157   Si       0.26792    0.52148    0.09969    1.000
    Si2158   Si       0.32950    0.50281    0.09266    1.000
    N2159    N        0.48894    0.50300    0.08776    1.000
    Si2160   Si       0.42698    0.48363    0.00894    1.000
    N2161    N        0.37167    0.51730    0.09125    1.000
    N2162    N        0.39809    0.50913    0.02803    1.000
    Si2163   Si       0.38261    0.48686    0.06254    1.000
    Si2164   Si       0.48339    0.50893    0.00297    1.000
    N2165    N        0.23812    0.48779    0.09236    1.000
    Si2166   Si       0.35131    0.53250    0.18017    1.000
    N2167    N        0.26451    0.51875    0.14580    1.000
    N2168    N        0.32438    0.49987    0.17770    1.000
    Si2169   Si       0.28925    0.48145    0.15735    1.000
    Si2170   Si       0.40534    0.48319    0.16101    1.000
    Si2171   Si       0.46454    0.51155    0.12072    1.000
    N2172    N        0.38774    0.52405    0.15741    1.000
    N2173    N        0.32491    0.50255    0.35399    1.000
    Si2174   Si       0.30271    0.52804    0.27218    1.000
    N2175    N        0.27182    0.52750    0.30166    1.000
    N2176    N        0.29827    0.48924    0.25080    1.000
    Si2177   Si       0.34511    0.53275    0.32891    1.000
    N2178    N        0.34347    0.52566    0.28580    1.000
    Si2179   Si       0.43017    0.51399    0.34724    1.000
    N2180    N        0.40456    0.50193    0.26488    1.000
    N2181    N        0.45471    0.52477    0.31079    1.000
    Si2182   Si       0.43546    0.53050    0.27309    1.000
    N2183    N        0.38670    0.53248    0.34235    1.000
    Si2184   Si       0.37523    0.53388    0.25948    1.000
    Si2185   Si       0.30921    0.48490    0.44274    1.000
    Si2186   Si       0.33365    0.51252    0.39428    1.000
    N2187    N        0.29987    0.52150    0.42025    1.000
    N2188    N        0.32725    0.48604    0.48201    1.000
    N2189    N        0.48987    0.50689    0.41007    1.000
    Si2190   Si       0.48580    0.48120    0.37529    1.000
    N2191    N        0.43314    0.53239    0.38758    1.000
    N2192    N        0.43915    0.50249    0.45763    1.000
    Si2193   Si       0.45529    0.52854    0.42499    1.000
    Si2194   Si       0.41692    0.52554    0.48673    1.000
    Si2195   Si       0.35332    0.51482    0.49960    1.000
    N2196    N        0.46881    0.53381    0.24559    1.000
    N2197    N        0.33786    0.51725    0.53970    1.000
    Si2198   Si       0.30249    0.50142    0.55775    1.000
    N2199    N        0.31966    0.48644    0.59711    1.000
    N2200    N        0.27277    0.53392    0.55436    1.000
    N2201    N        0.38470    0.47923    0.58198    1.000
    Si2202   Si       0.33243    0.52102    0.61875    1.000
    N2203    N        0.39553    0.50076    0.51658    1.000
    N2204    N        0.44783    0.49179    0.60834    1.000
    Si2205   Si       0.37737    0.51573    0.55961    1.000
    N2206    N        0.47187    0.52540    0.55833    1.000
    Si2207   Si       0.48673    0.51092    0.59559    1.000
    N2208    N        0.30812    0.49358    0.72066    1.000
    Si2209   Si       0.30269    0.50793    0.67895    1.000
    N2210    N        0.34209    0.51005    0.66080    1.000
    Si2211   Si       0.34229    0.51214    0.74210    1.000
    Si2212   Si       0.43314    0.50205    0.71224    1.000
    Si2213   Si       0.45051    0.51414    0.64508    1.000
    N2214    N        0.39658    0.49107    0.69053    1.000
    N2215    N        0.46306    0.49372    0.67991    1.000
    Si2216   Si       0.37818    0.53116    0.67704    1.000
    N2217    N        0.36928    0.54125    0.72122    1.000
    N2218    N        0.34669    0.49594    0.83390    1.000
    N2219    N        0.28791    0.52008    0.86592    1.000
    Si2220   Si       0.35554    0.53093    0.80936    1.000
    Si2221   Si       0.24717    0.50237    0.86997    1.000
    Si2222   Si       0.32448    0.49847    0.87139    1.000
    N2223    N        0.32952    0.53549    0.77573    1.000
    N2224    N        0.25681    0.53595    0.78486    1.000
    N2225    N        0.45434    0.50187    0.86096    1.000
    N2226    N        0.39642    0.53064    0.78695    1.000
    Si2227   Si       0.47701    0.52965    0.83509    1.000
    N2228    N        0.48000    0.51122    0.79672    1.000
    Si2229   Si       0.40314    0.48821    0.77780    1.000
    Si2230   Si       0.42043    0.53013    0.95238    1.000
    N2231    N        0.31216    0.49759    0.95076    1.000
    N2232    N        0.35152    0.50611    0.90717    1.000
    Si2233   Si       0.34210    0.52758    0.94441    1.000
    Si2234   Si       0.46245    0.50267    0.90252    1.000
    N2235    N        0.42296    0.50213    0.91869    1.000
    N2236    N        0.44752    0.51057    0.98010    1.000
    N2237    N        0.38008    0.52672    0.96570    1.000
    Si2238   Si       0.38628    0.47915    0.90867    1.000
    N2239    N        0.33132    0.57706    0.05712    1.000
    Si2240   Si       0.33477    0.57804    0.09869    1.000
    N2241    N        0.27031    0.56654    0.01204    1.000
    Si2242   Si       0.30190    0.55032    0.03790    1.000
    N2243    N        0.31391    0.54155    0.11481    1.000
    N2244    N        0.32724    0.54336    0.00177    1.000
    Si2245   Si       0.45582    0.58312    0.10046    1.000
    N2246    N        0.38633    0.58013    0.00602    1.000
    Si2247   Si       0.47601    0.58457    0.04099    1.000
    N2248    N        0.43602    0.54379    0.10967    1.000
    N2249    N        0.37701    0.58340    0.11187    1.000
    N2250    N        0.48929    0.55164    0.01682    1.000
    Si2251   Si       0.39347    0.54337    0.11910    1.000
    Si2252   Si       0.33474    0.57604    0.21957    1.000
    N2253    N        0.25710    0.57783    0.16070    1.000
    N2254    N        0.32436    0.56786    0.17671    1.000
    Si2255   Si       0.29159    0.55068    0.15347    1.000
    N2256    N        0.36070    0.54191    0.21985    1.000
    Si2257   Si       0.48316    0.57250    0.22962    1.000
    N2258    N        0.47986    0.58084    0.18731    1.000
    N2259    N        0.24006    0.55205    0.08371    1.000
    Si2260   Si       0.37079    0.53850    0.00667    1.000
    Si2261   Si       0.27453    0.55973    0.33238    1.000
    N2262    N        0.31716    0.56636    0.33794    1.000
    N2263    N        0.30617    0.56523    0.25203    1.000
    N2264    N        0.25834    0.59150    0.30557    1.000
    Si2265   Si       0.39720    0.55442    0.38097    1.000
    Si2266   Si       0.47222    0.58111    0.48158    1.000
    N2267    N        0.40622    0.56532    0.26928    1.000
    N2268    N        0.25569    0.55014    0.37084    1.000
    Si2269   Si       0.26876    0.55141    0.41179    1.000
    N2270    N        0.33033    0.58173    0.47095    1.000
    N2271    N        0.26303    0.55388    0.48286    1.000
    Si2272   Si       0.28826    0.58655    0.47007    1.000
    N2273    N        0.27201    0.59051    0.42871    1.000
    Si2274   Si       0.35804    0.56132    0.44198    1.000
    N2275    N        0.36143    0.54456    0.40221    1.000
    N2276    N        0.40777    0.59441    0.37789    1.000
    N2277    N        0.46812    0.56732    0.44025    1.000
    N2278    N        0.48568    0.58694    0.37226    1.000
    N2279    N        0.37715    0.53535    0.46789    1.000
    Si2280   Si       0.27439    0.57137    0.57985    1.000
    Si2281   Si       0.25068    0.55159    0.52328    1.000
    N2282    N        0.24793    0.58490    0.61545    1.000
    N2283    N        0.29655    0.54504    0.61077    1.000
    N2284    N        0.36164    0.54372    0.59840    1.000
    N2285    N        0.46742    0.59336    0.55883    1.000
    N2286    N        0.40350    0.55196    0.55492    1.000
    Si2287   Si       0.38499    0.57714    0.58562    1.000
    Si2288   Si       0.44608    0.55632    0.54275    1.000
    N2289    N        0.44214    0.55681    0.50144    1.000
    N2290    N        0.41853    0.59427    0.60744    1.000
    Si2291   Si       0.28796    0.58217    0.70095    1.000
    Si2292   Si       0.26178    0.54688    0.63653    1.000
    N2293    N        0.27830    0.57379    0.74235    1.000
    N2294    N        0.28222    0.54672    0.67572    1.000
    Si2295   Si       0.41329    0.58141    0.64852    1.000
    N2296    N        0.37274    0.57983    0.66352    1.000
    N2297    N        0.43664    0.54348    0.72474    1.000
    Si2298   Si       0.47173    0.56862    0.72576    1.000
    Si2299   Si       0.48219    0.57643    0.65234    1.000
    N2300    N        0.48060    0.54034    0.62951    1.000
    N2301    N        0.41608    0.53850    0.65294    1.000
    N2302    N        0.29781    0.57880    0.81770    1.000
    Si2303   Si       0.28601    0.56295    0.85731    1.000
    Si2304   Si       0.29352    0.55707    0.78119    1.000
    N2305    N        0.24797    0.57933    0.86831    1.000
    N2306    N        0.43418    0.57149    0.94968    1.000
    N2307    N        0.37000    0.56411    0.83384    1.000
    N2308    N        0.45124    0.56577    0.83863    1.000
    N2309    N        0.42302    0.58559    0.78069    1.000
    Si2310   Si       0.41176    0.56303    0.81668    1.000
    N2311    N        0.31636    0.58352    0.88124    1.000
    N2312    N        0.33414    0.57082    0.94415    1.000
    Si2313   Si       0.30341    0.57807    0.97738    1.000
    N2314    N        0.26989    0.59285    0.94170    1.000
    Si2315   Si       0.46728    0.58072    0.92451    1.000
    N2316    N        0.48273    0.54116    0.91039    1.000
    Si2317   Si       0.39991    0.55881    0.74812    1.000
    Si2318   Si       0.29714    0.64560    0.10042    1.000
    Si2319   Si       0.30308    0.65059    0.01181    1.000
    N2320    N        0.29423    0.64594    0.05598    1.000
    N2321    N        0.31993    0.61350    0.99861    1.000
    N2322    N        0.26154    0.65487    0.00299    1.000
    Si2323   Si       0.35416    0.60215    0.02714    1.000
    N2324    N        0.37774    0.63325    0.04638    1.000
    Si2325   Si       0.42096    0.63148    0.04020    1.000
    N2326    N        0.44133    0.60131    0.06265    1.000
    N2327    N        0.43789    0.62383    0.99898    1.000
    N2328    N        0.31661    0.61204    0.11761    1.000
    N2329    N        0.26263    0.65048    0.12773    1.000
    Si2330   Si       0.25511    0.62245    0.16412    1.000
    N2331    N        0.29394    0.62893    0.18374    1.000
    Si2332   Si       0.32758    0.61375    0.16126    1.000
    N2333    N        0.35303    0.61385    0.21896    1.000
    Si2334   Si       0.27647    0.64808    0.21885    1.000
    N2335    N        0.36741    0.63518    0.15550    1.000
    Si2336   Si       0.39784    0.61995    0.12406    1.000
    N2337    N        0.48693    0.64431    0.16338    1.000
    N2338    N        0.42736    0.62118    0.20166    1.000
    Si2339   Si       0.45731    0.61408    0.17058    1.000
    Si2340   Si       0.38567    0.63359    0.19755    1.000
    N2341    N        0.43830    0.60694    0.13301    1.000
    Si2342   Si       0.44247    0.63402    0.24014    1.000
    Si2343   Si       0.25226    0.65513    0.04606    1.000
    N2344    N        0.28561    0.63823    0.25925    1.000
    N2345    N        0.31794    0.64246    0.32098    1.000
    Si2346   Si       0.33507    0.60563    0.34145    1.000
    Si2347   Si       0.36097    0.64913    0.30606    1.000
    N2348    N        0.37170    0.60823    0.31370    1.000
    N2349    N        0.40916    0.63796    0.26715    1.000
    N2350    N        0.45076    0.64569    0.36261    1.000
    Si2351   Si       0.47921    0.60239    0.29817    1.000
    Si2352   Si       0.44671    0.60192    0.35991    1.000
    N2353    N        0.46905    0.60357    0.25633    1.000
    Si2354   Si       0.40898    0.60123    0.29242    1.000
    N2355    N        0.44124    0.59663    0.31850    1.000
    N2356    N        0.34249    0.62699    0.37882    1.000
    Si2357   Si       0.26104    0.63225    0.41843    1.000
    N2358    N        0.27367    0.64197    0.37785    1.000
    Si2359   Si       0.35751    0.61570    0.47412    1.000
    N2360    N        0.33920    0.65491    0.47866    1.000
    N2361    N        0.27897    0.62208    0.49323    1.000
    N2362    N        0.46082    0.62347    0.48792    1.000
    N2363    N        0.37717    0.60037    0.43883    1.000
    Si2364   Si       0.48502    0.65023    0.46034    1.000
    Si2365   Si       0.38111    0.62119    0.39950    1.000
    Si2366   Si       0.23872    0.65448    0.35450    1.000
    Si2367   Si       0.31212    0.65563    0.36319    1.000
    Si2368   Si       0.27810    0.59629    0.26690    1.000
    Si2369   Si       0.32393    0.62457    0.59327    1.000
    Si2370   Si       0.26637    0.62625    0.53620    1.000
    N2371    N        0.29301    0.60960    0.56930    1.000
    N2372    N        0.36234    0.61387    0.57800    1.000
    Si2373   Si       0.44199    0.62004    0.58165    1.000
    Si2374   Si       0.38031    0.63916    0.54874    1.000
    N2375    N        0.42389    0.64545    0.55065    1.000
    N2376    N        0.38478    0.61709    0.50845    1.000
    Si2377   Si       0.42412    0.63614    0.50621    1.000
    N2378    N        0.46462    0.65174    0.60059    1.000
    Si2379   Si       0.34381    0.61974    0.73927    1.000
    Si2380   Si       0.26715    0.61698    0.63990    1.000
    Si2381   Si       0.34251    0.61093    0.66590    1.000
    N2382    N        0.31077    0.61208    0.63519    1.000
    N2383    N        0.32263    0.60779    0.70444    1.000
    N2384    N        0.25538    0.60534    0.67938    1.000
    N2385    N        0.35548    0.65381    0.66256    1.000
    N2386    N        0.41335    0.65561    0.71052    1.000
    N2387    N        0.38296    0.60093    0.74080    1.000
    Si2388   Si       0.44685    0.63299    0.69505    1.000
    N2389    N        0.44736    0.60075    0.66462    1.000
    N2390    N        0.45544    0.60953    0.72871    1.000
    N2391    N        0.33297    0.63330    0.84176    1.000
    N2392    N        0.26125    0.63480    0.81904    1.000
    Si2393   Si       0.30227    0.62002    0.81431    1.000
    N2394    N        0.31903    0.63027    0.77487    1.000
    N2395    N        0.45464    0.60857    0.89230    1.000
    N2396    N        0.43208    0.63668    0.84204    1.000
    Si2397   Si       0.46407    0.60587    0.84951    1.000
    Si2398   Si       0.42101    0.61981    0.75356    1.000
    Si2399   Si       0.41659    0.62869    0.88324    1.000
    N2400    N        0.27213    0.63966    0.88686    1.000
    N2401    N        0.32842    0.63508    0.92477    1.000
    Si2402   Si       0.29487    0.61166    0.90748    1.000
    Si2403   Si       0.35877    0.60439    0.92567    1.000
    N2404    N        0.38885    0.62610    0.95250    1.000
    N2405    N        0.37970    0.60626    0.88836    1.000
    Si2406   Si       0.34988    0.59476    0.85777    1.000
    Si2407   Si       0.41209    0.59887    0.97672    1.000
    N2408    N        0.32707    0.67898    0.10154    1.000
    N2409    N        0.24165    0.69840    0.05340    1.000
    Si2410   Si       0.36298    0.66665    0.07200    1.000
    N2411    N        0.36734    0.70770    0.15395    1.000
    N2412    N        0.43423    0.69234    0.15242    1.000
    N2413    N        0.39025    0.67465    0.20987    1.000
    N2414    N        0.37015    0.69992    0.04639    1.000
    Si2415   Si       0.47872    0.68375    0.06405    1.000
    N2416    N        0.44167    0.67268    0.03976    1.000
    N2417    N        0.46473    0.67215    0.10320    1.000
    Si2418   Si       0.42498    0.68793    0.11168    1.000
    Si2419   Si       0.41366    0.71026    0.04658    1.000
    N2420    N        0.39138    0.66100    0.10382    1.000
    Si2421   Si       0.47806    0.68505    0.15115    1.000
    N2422    N        0.28682    0.68948    0.21501    1.000
    Si2423   Si       0.35588    0.67123    0.13204    1.000
    Si2424   Si       0.40132    0.70256    0.17887    1.000
    N2425    N        0.45451    0.67441    0.24359    1.000
    N2426    N        0.25738    0.66977    0.31815    1.000
    N2427    N        0.35444    0.67457    0.27229    1.000
    N2428    N        0.31914    0.69859    0.36281    1.000
    Si2429   Si       0.29209    0.66694    0.29325    1.000
    N2430    N        0.29799    0.71260    0.28710    1.000
    Si2431   Si       0.35851    0.71273    0.34315    1.000
    Si2432   Si       0.34057    0.71603    0.27614    1.000
    N2433    N        0.40581    0.71756    0.26162    1.000
    N2434    N        0.38079    0.67636    0.33509    1.000
    N2435    N        0.46042    0.69607    0.31232    1.000
    Si2436   Si       0.39276    0.67570    0.25261    1.000
    Si2437   Si       0.48143    0.66643    0.33439    1.000
    Si2438   Si       0.41366    0.67025    0.36485    1.000
    Si2439   Si       0.45006    0.71254    0.27214    1.000
    N2440    N        0.43244    0.71014    0.36930    1.000
    N2441    N        0.40752    0.66874    0.48058    1.000
    N2442    N        0.28347    0.66262    0.43872    1.000
    Si2443   Si       0.27311    0.70594    0.43918    1.000
    Si2444   Si       0.29671    0.66290    0.48174    1.000
    N2445    N        0.29522    0.71065    0.47676    1.000
    N2446    N        0.39844    0.66033    0.40402    1.000
    Si2447   Si       0.41475    0.67684    0.43981    1.000
    Si2448   Si       0.47446    0.66047    0.39766    1.000
    N2449    N        0.45820    0.67754    0.43541    1.000
    Si2450   Si       0.32342    0.68696    0.55494    1.000
    N2451    N        0.29023    0.66987    0.52808    1.000
    N2452    N        0.32436    0.66867    0.59582    1.000
    Si2453   Si       0.25448    0.69281    0.54058    1.000
    Si2454   Si       0.28371    0.68575    0.61236    1.000
    N2455    N        0.27160    0.70988    0.57615    1.000
    N2456    N        0.35985    0.67483    0.53794    1.000
    Si2457   Si       0.44692    0.67895    0.56778    1.000
    N2458    N        0.47907    0.68754    0.53939    1.000
    N2459    N        0.43461    0.71216    0.58916    1.000
    N2460    N        0.25570    0.65582    0.62349    1.000
    N2461    N        0.30572    0.70532    0.64464    1.000
    Si2462   Si       0.34210    0.68386    0.63495    1.000
    N2463    N        0.34986    0.66442    0.73371    1.000
    N2464    N        0.27207    0.71362    0.70343    1.000
    N2465    N        0.45355    0.70737    0.72798    1.000
    Si2466   Si       0.37520    0.67027    0.69835    1.000
    N2467    N        0.38815    0.71112    0.68859    1.000
    N2468    N        0.47243    0.66210    0.67364    1.000
    Si2469   Si       0.46840    0.70418    0.68613    1.000
    Si2470   Si       0.42082    0.68508    0.74320    1.000
    N2471    N        0.37346    0.71192    0.62516    1.000
    Si2472   Si       0.36907    0.68169    0.49654    1.000
    N2473    N        0.28487    0.68945    0.77060    1.000
    N2474    N        0.29048    0.68994    0.83720    1.000
    N2475    N        0.34708    0.69472    0.80153    1.000
    Si2476   Si       0.25890    0.67852    0.80614    1.000
    Si2477   Si       0.33154    0.67736    0.84021    1.000
    Si2478   Si       0.32514    0.67389    0.76920    1.000
    N2479    N        0.40790    0.70263    0.83314    1.000
    N2480    N        0.47757    0.68356    0.80791    1.000
    Si2481   Si       0.43562    0.67160    0.81618    1.000
    N2482    N        0.35060    0.68932    0.87722    1.000
    N2483    N        0.24628    0.67453    0.94615    1.000
    N2484    N        0.30062    0.69947    0.92635    1.000
    Si2485   Si       0.28139    0.69230    0.96745    1.000
    Si2486   Si       0.33641    0.67732    0.91869    1.000
    Si2487   Si       0.25313    0.67510    0.90562    1.000
    N2488    N        0.41193    0.66754    0.89997    1.000
    Si2489   Si       0.39406    0.69853    0.87600    1.000
    N2490    N        0.43440    0.68617    0.96810    1.000
    Si2491   Si       0.40355    0.66672    0.94473    1.000
    N2492    N        0.37017    0.69512    0.94072    1.000
    N2493    N        0.39274    0.71735    0.75859    1.000
    N2494    N        0.24778    0.71641    0.88867    1.000
    N2495    N        0.42438    0.65752    0.77670    1.000
    N2496    N        0.31740    0.68826    0.99391    1.000
    Si2497   Si       0.45626    0.66396    0.99776    1.000
    N2498    N        0.33117    0.74840    0.11023    1.000
    Si2499   Si       0.26567    0.72542    0.03219    1.000
    N2500    N        0.35608    0.75536    0.01072    1.000
    N2501    N        0.26556    0.73174    0.10910    1.000
    N2502    N        0.30627    0.72276    0.05141    1.000
    N2503    N        0.24887    0.76544    0.03894    1.000
    Si2504   Si       0.30595    0.71878    0.09476    1.000
    N2505    N        0.42345    0.72589    0.08848    1.000
    N2506    N        0.42594    0.74432    0.02456    1.000
    Si2507   Si       0.46815    0.75405    0.02416    1.000
    Si2508   Si       0.43667    0.76812    0.09685    1.000
    N2509    N        0.48576    0.72734    0.05624    1.000
    Si2510   Si       0.39668    0.76571    0.00075    1.000
    N2511    N        0.34409    0.73182    0.23455    1.000
    Si2512   Si       0.34480    0.74461    0.15045    1.000
    N2513    N        0.30379    0.73808    0.17231    1.000
    Si2514   Si       0.27466    0.75803    0.14521    1.000
    N2515    N        0.28028    0.75826    0.23441    1.000
    Si2516   Si       0.30359    0.72848    0.21448    1.000
    Si2517   Si       0.38533    0.74326    0.23144    1.000
    N2518    N        0.41168    0.74171    0.19753    1.000
    N2519    N        0.46957    0.77043    0.17915    1.000
    Si2520   Si       0.33845    0.71667    0.02089    1.000
    Si2521   Si       0.27154    0.74669    0.27613    1.000
    N2522    N        0.25361    0.73408    0.34455    1.000
    N2523    N        0.31471    0.77063    0.36352    1.000
    N2524    N        0.36088    0.73694    0.30675    1.000
    Si2525   Si       0.29104    0.73342    0.36809    1.000
    N2526    N        0.43951    0.75477    0.30422    1.000
    Si2527   Si       0.39615    0.75976    0.29438    1.000
    Si2528   Si       0.45485    0.73148    0.33896    1.000
    N2529    N        0.48938    0.75631    0.35181    1.000
    N2530    N        0.48774    0.72626    0.25640    1.000
    N2531    N        0.34834    0.76202    0.43295    1.000
    N2532    N        0.27794    0.73595    0.40924    1.000
    Si2533   Si       0.34831    0.76850    0.39143    1.000
    Si2534   Si       0.25170    0.77267    0.41386    1.000
    N2535    N        0.36165    0.72408    0.48821    1.000
    N2536    N        0.41162    0.72209    0.43532    1.000
    N2537    N        0.37319    0.73730    0.37545    1.000
    Si2538   Si       0.38129    0.74723    0.45705    1.000
    N2539    N        0.46070    0.73019    0.48382    1.000
    N2540    N        0.48425    0.73826    0.41587    1.000
    Si2541   Si       0.45690    0.72114    0.44374    1.000
    Si2542   Si       0.41119    0.73822    0.39366    1.000
    Si2543   Si       0.47509    0.77122    0.38923    1.000
    Si2544   Si       0.24426    0.77622    0.33831    1.000
    N2545    N        0.32021    0.73009    0.54251    1.000
    Si2546   Si       0.29518    0.75170    0.57017    1.000
    N2547    N        0.32438    0.76109    0.60113    1.000
    N2548    N        0.25387    0.76787    0.57309    1.000
    Si2549   Si       0.32298    0.73647    0.49921    1.000
    Si2550   Si       0.36562    0.75362    0.61137    1.000
    Si2551   Si       0.43154    0.75375    0.57970    1.000
    N2552    N        0.44728    0.75590    0.54020    1.000
    Si2553   Si       0.47820    0.72814    0.52407    1.000
    N2554    N        0.39035    0.76933    0.58046    1.000
    N2555    N        0.48458    0.76784    0.73077    1.000
    Si2556   Si       0.40518    0.72834    0.65230    1.000
    N2557    N        0.35289    0.76814    0.70880    1.000
    N2558    N        0.24458    0.73197    0.63742    1.000
    Si2559   Si       0.27865    0.73262    0.66582    1.000
    Si2560   Si       0.27067    0.72215    0.74664    1.000
    N2561    N        0.44878    0.72862    0.65516    1.000
    N2562    N        0.38340    0.76753    0.64746    1.000
    Si2563   Si       0.38151    0.73922    0.72206    1.000
    Si2564   Si       0.47992    0.75079    0.63270    1.000
    Si2565   Si       0.45083    0.74704    0.74556    1.000
    N2566    N        0.41592    0.76593    0.72650    1.000
    Si2567   Si       0.43983    0.76765    0.49900    1.000
    Si2568   Si       0.27040    0.72660    0.85067    1.000
    N2569    N        0.26397    0.75407    0.81444    1.000
    N2570    N        0.29408    0.76164    0.74957    1.000
    N2571    N        0.39131    0.76602    0.80958    1.000
    N2572    N        0.45552    0.74790    0.78874    1.000
    N2573    N        0.45646    0.75827    0.85576    1.000
    Si2574   Si       0.38192    0.72073    0.80197    1.000
    Si2575   Si       0.43453    0.77331    0.81886    1.000
    N2576    N        0.40056    0.73706    0.89547    1.000
    N2577    N        0.30104    0.75255    0.87113    1.000
    N2578    N        0.25679    0.72602    0.98775    1.000
    N2579    N        0.26874    0.76059    0.93216    1.000
    Si2580   Si       0.30235    0.74098    0.91376    1.000
    N2581    N        0.33943    0.75737    0.93165    1.000
    Si2582   Si       0.26068    0.76851    0.97415    1.000
    Si2583   Si       0.43841    0.75768    0.89498    1.000
    N2584    N        0.40796    0.75079    0.96201    1.000
    N2585    N        0.46308    0.73167    0.92257    1.000
    Si2586   Si       0.44498    0.72800    0.96151    1.000
    Si2587   Si       0.37762    0.73748    0.93369    1.000
    N2588    N        0.48009    0.73778    0.98561    1.000
    Si2589   Si       0.32728    0.78953    0.09779    1.000
    N2590    N        0.31820    0.79532    0.05636    1.000
    Si2591   Si       0.27518    0.80052    0.04188    1.000
    Si2592   Si       0.33120    0.79010    0.01441    1.000
    N2593    N        0.25296    0.80814    0.08147    1.000
    N2594    N        0.35802    0.81737    0.10818    1.000
    Si2595   Si       0.27045    0.82931    0.11488    1.000
    N2596    N        0.48619    0.83298    0.14981    1.000
    N2597    N        0.29159    0.79040    0.99614    1.000
    N2598    N        0.46848    0.79624    0.02287    1.000
    N2599    N        0.42083    0.80482    0.07482    1.000
    Si2600   Si       0.43386    0.81952    0.03616    1.000
    N2601    N        0.40147    0.80904    0.00721    1.000
    Si2602   Si       0.40072    0.81409    0.11271    1.000
    N2603    N        0.47957    0.77737    0.10203    1.000
    N2604    N        0.29680    0.79908    0.13449    1.000
    N2605    N        0.29611    0.81413    0.20308    1.000
    Si2606   Si       0.32171    0.81352    0.16835    1.000
    Si2607   Si       0.26082    0.78908    0.21226    1.000
    N2608    N        0.35370    0.78383    0.16896    1.000
    N2609    N        0.24463    0.77414    0.17289    1.000
    N2610    N        0.42976    0.81693    0.19896    1.000
    N2611    N        0.41694    0.78016    0.13484    1.000
    Si2612   Si       0.47422    0.81289    0.18844    1.000
    Si2613   Si       0.42469    0.77758    0.17764    1.000
    Si2614   Si       0.41567    0.81605    0.24161    1.000
    Si2615   Si       0.29423    0.81825    0.29743    1.000
    N2616    N        0.33120    0.81807    0.27459    1.000
    N2617    N        0.27238    0.78097    0.30279    1.000
    Si2618   Si       0.23918    0.80921    0.47775    1.000
    Si2619   Si       0.36874    0.82896    0.29665    1.000
    N2620    N        0.39616    0.77894    0.25416    1.000
    N2621    N        0.39307    0.79785    0.31857    1.000
    Si2622   Si       0.40549    0.80379    0.36006    1.000
    N2623    N        0.46773    0.81707    0.33145    1.000
    Si2624   Si       0.45637    0.79398    0.29631    1.000
    N2625    N        0.44900    0.82942    0.26594    1.000
    Si2626   Si       0.29788    0.81033    0.37006    1.000
    N2627    N        0.25698    0.79607    0.37568    1.000
    N2628    N        0.26734    0.79213    0.44852    1.000
    N2629    N        0.31527    0.81524    0.41070    1.000
    Si2630   Si       0.35618    0.83024    0.41665    1.000
    N2631    N        0.31943    0.77809    0.49185    1.000
    Si2632   Si       0.31247    0.79033    0.44826    1.000
    N2633    N        0.35398    0.83091    0.46000    1.000
    N2634    N        0.48366    0.81267    0.39823    1.000
    N2635    N        0.46713    0.79824    0.49724    1.000
    N2636    N        0.37294    0.80441    0.38707    1.000
    Si2637   Si       0.38764    0.81942    0.48674    1.000
    N2638    N        0.40439    0.77932    0.47608    1.000
    N2639    N        0.43272    0.77390    0.37890    1.000
    N2640    N        0.30568    0.80367    0.55558    1.000
    Si2641   Si       0.32743    0.81312    0.51757    1.000
    Si2642   Si       0.31949    0.80354    0.59635    1.000
    N2643    N        0.25218    0.79932    0.51732    1.000
    Si2644   Si       0.26179    0.81701    0.55818    1.000
    N2645    N        0.35604    0.82570    0.59505    1.000
    N2646    N        0.28793    0.82088    0.61808    1.000
    N2647    N        0.37123    0.81862    0.52731    1.000
    Si2648   Si       0.38738    0.81210    0.56778    1.000
    Si2649   Si       0.46043    0.81910    0.60068    1.000
    Si2650   Si       0.41008    0.80889    0.73769    1.000
    N2651    N        0.31209    0.82210    0.72301    1.000
    Si2652   Si       0.27473    0.81185    0.65901    1.000
    N2653    N        0.34521    0.82205    0.66085    1.000
    Si2654   Si       0.31098    0.77995    0.71441    1.000
    N2655    N        0.39902    0.82364    0.69933    1.000
    Si2656   Si       0.37444    0.79390    0.68010    1.000
    N2657    N        0.45865    0.77572    0.60464    1.000
    N2658    N        0.28975    0.77394    0.67631    1.000
    N2659    N        0.27056    0.81691    0.78807    1.000
    Si2660   Si       0.31692    0.78939    0.85362    1.000
    N2661    N        0.32928    0.78886    0.81192    1.000
    N2662    N        0.28792    0.82125    0.85599    1.000
    Si2663   Si       0.28993    0.77821    0.79056    1.000
    Si2664   Si       0.36836    0.80352    0.80510    1.000
    N2665    N        0.37560    0.81608    0.76415    1.000
    N2666    N        0.43386    0.81839    0.82236    1.000
    N2667    N        0.44649    0.82584    0.75020    1.000
    N2668    N        0.34349    0.80623    0.88258    1.000
    Si2669   Si       0.34399    0.80037    0.92648    1.000
    N2670    N        0.30914    0.82509    0.93388    1.000
    Si2671   Si       0.41415    0.83009    0.91926    1.000
    N2672    N        0.44414    0.79880    0.91048    1.000
    Si2673   Si       0.47918    0.81721    0.89317    1.000
    N2674    N        0.37858    0.81836    0.94144    1.000
    N2675    N        0.33861    0.82948    0.99496    1.000
    Si2676   Si       0.29153    0.87195    0.05363    1.000
    N2677    N        0.29931    0.85665    0.09501    1.000
    N2678    N        0.27314    0.84125    0.02684    1.000
    Si2679   Si       0.34030    0.85671    0.11220    1.000
    N2680    N        0.33011    0.88888    0.04050    1.000
    N2681    N        0.44613    0.86212    0.03588    1.000
    Si2682   Si       0.47475    0.86816    0.06922    1.000
    N2683    N        0.45162    0.88018    0.10443    1.000
    Si2684   Si       0.40953    0.88777    0.11500    1.000
    N2685    N        0.36803    0.88884    0.09835    1.000
    N2686    N        0.31790    0.87336    0.22522    1.000
    Si2687   Si       0.34039    0.88290    0.18552    1.000
    N2688    N        0.33389    0.85377    0.15639    1.000
    Si2689   Si       0.27545    0.88979    0.21712    1.000
    Si2690   Si       0.41583    0.85528    0.18084    1.000
    Si2691   Si       0.30890    0.83242    0.23953    1.000
    N2692    N        0.23793    0.84461    0.13764    1.000
    Si2693   Si       0.47518    0.87668    0.14118    1.000
    N2694    N        0.40776    0.84935    0.13793    1.000
    N2695    N        0.38265    0.87958    0.19455    1.000
    N2696    N        0.45128    0.88219    0.17654    1.000
    Si2697   Si       0.32185    0.87545    0.33309    1.000
    N2698    N        0.27146    0.83536    0.26371    1.000
    N2699    N        0.36127    0.85869    0.32961    1.000
    N2700    N        0.29868    0.83738    0.33601    1.000
    N2701    N        0.39148    0.84585    0.26450    1.000
    Si2702   Si       0.42816    0.87067    0.27260    1.000
    Si2703   Si       0.38712    0.87135    0.36232    1.000
    N2704    N        0.48602    0.87462    0.36421    1.000
    Si2705   Si       0.46412    0.83834    0.36977    1.000
    N2706    N        0.42161    0.84398    0.36763    1.000
    N2707    N        0.43837    0.89114    0.30959    1.000
    N2708    N        0.31316    0.88897    0.44324    1.000
    Si2709   Si       0.33714    0.87074    0.47483    1.000
    N2710    N        0.36875    0.86881    0.40331    1.000
    N2711    N        0.48025    0.85285    0.45887    1.000
    N2712    N        0.41594    0.84857    0.48763    1.000
    Si2713   Si       0.45778    0.84034    0.49343    1.000
    N2714    N        0.31421    0.89349    0.37072    1.000
    N2715    N        0.27012    0.86405    0.55147    1.000
    Si2716   Si       0.27149    0.86664    0.50737    1.000
    N2717    N        0.31205    0.84955    0.50220    1.000
    N2718    N        0.46697    0.86169    0.53107    1.000
    Si2719   Si       0.43569    0.87043    0.55901    1.000
    N2720    N        0.32683    0.87868    0.62762    1.000
    N2721    N        0.25767    0.86502    0.73523    1.000
    N2722    N        0.35396    0.87192    0.71177    1.000
    N2723    N        0.28450    0.85274    0.67168    1.000
    Si2724   Si       0.28721    0.86426    0.62986    1.000
    Si2725   Si       0.32447    0.84830    0.68897    1.000
    Si2726   Si       0.26890    0.88509    0.70070    1.000
    Si2727   Si       0.35974    0.84967    0.63151    1.000
    N2728    N        0.46612    0.83784    0.64269    1.000
    N2729    N        0.39345    0.87222    0.64830    1.000
    Si2730   Si       0.39594    0.86657    0.69092    1.000
    Si2731   Si       0.46631    0.87980    0.63234    1.000
    N2732    N        0.42533    0.83164    0.57665    1.000
    N2733    N        0.31822    0.86003    0.77293    1.000
    N2734    N        0.27014    0.88252    0.81617    1.000
    Si2735   Si       0.28671    0.83748    0.75410    1.000
    Si2736   Si       0.35769    0.84576    0.86926    1.000
    Si2737   Si       0.26077    0.83829    0.82495    1.000
    Si2738   Si       0.35483    0.85288    0.75171    1.000
    N2739    N        0.36772    0.84144    0.82750    1.000
    Si2740   Si       0.37554    0.88201    0.81081    1.000
    N2741    N        0.47241    0.87732    0.80336    1.000
    Si2742   Si       0.42597    0.85119    0.84979    1.000
    N2743    N        0.38386    0.88140    0.76916    1.000
    Si2744   Si       0.45760    0.83886    0.78986    1.000
    Si2745   Si       0.29561    0.84099    0.89502    1.000
    N2746    N        0.32640    0.87147    0.88380    1.000
    N2747    N        0.25979    0.85230    0.96488    1.000
    N2748    N        0.25349    0.85252    0.90187    1.000
    N2749    N        0.31142    0.89358    0.97524    1.000
    Si2750   Si       0.29878    0.83747    0.97837    1.000
    N2751    N        0.46449    0.85498    0.87221    1.000
    Si2752   Si       0.38030    0.83642    0.98141    1.000
    N2753    N        0.43793    0.86226    0.93656    1.000
    N2754    N        0.38240    0.88059    0.97983    1.000
    N2755    N        0.39918    0.84699    0.88402    1.000
    Si2756   Si       0.47509    0.87293    0.91415    1.000
    Si2757   Si       0.26498    0.93136    0.09038    1.000
    N2758    N        0.25706    0.90059    0.05655    1.000
    N2759    N        0.30236    0.93876    0.11155    1.000
    Si2760   Si       0.35973    0.91127    0.06254    1.000
    Si2761   Si       0.34901    0.89779    0.99968    1.000
    Si2762   Si       0.43448    0.90374    0.02298    1.000
    N2763    N        0.45969    0.93846    0.04032    1.000
    N2764    N        0.39626    0.90991    0.04048    1.000
    Si2765   Si       0.29063    0.92664    0.15119    1.000
    N2766    N        0.33140    0.92448    0.17164    1.000
    N2767    N        0.28885    0.92794    0.23962    1.000
    N2768    N        0.24187    0.91952    0.12416    1.000
    N2769    N        0.42566    0.89980    0.24046    1.000
    N2770    N        0.46933    0.94318    0.19872    1.000
    N2771    N        0.41605    0.92744    0.13158    1.000
    N2772    N        0.39689    0.94624    0.19113    1.000
    Si2773   Si       0.46096    0.90321    0.21410    1.000
    Si2774   Si       0.39060    0.91313    0.21929    1.000
    Si2775   Si       0.43491    0.94918    0.16994    1.000
    N2776    N        0.27454    0.89126    0.17403    1.000
    N2777    N        0.31529    0.90316    0.29892    1.000
    Si2778   Si       0.32281    0.90486    0.25672    1.000
    N2779    N        0.25125    0.91930    0.36385    1.000
    Si2780   Si       0.30314    0.94525    0.31152    1.000
    N2781    N        0.36113    0.92447    0.24786    1.000
    N2782    N        0.26044    0.95202    0.30115    1.000
    N2783    N        0.48956    0.91520    0.42115    1.000
    Si2784   Si       0.47286    0.90211    0.33324    1.000
    N2785    N        0.45449    0.93851    0.35266    1.000
    N2786    N        0.39135    0.91402    0.35785    1.000
    Si2787   Si       0.41945    0.92916    0.32901    1.000
    Si2788   Si       0.33801    0.89566    0.40848    1.000
    Si2789   Si       0.29086    0.92985    0.37632    1.000
    N2790    N        0.28234    0.93906    0.41818    1.000
    N2791    N        0.34878    0.93793    0.41018    1.000
    Si2792   Si       0.27621    0.90907    0.45219    1.000
    Si2793   Si       0.36099    0.94106    0.49096    1.000
    N2794    N        0.27283    0.90998    0.49530    1.000
    Si2795   Si       0.38595    0.94539    0.39048    1.000
    N2796    N        0.36859    0.89909    0.48370    1.000
    Si2797   Si       0.47425    0.89629    0.45749    1.000
    Si2798   Si       0.46098    0.93909    0.39668    1.000
    N2799    N        0.42117    0.94261    0.41380    1.000
    N2800    N        0.43548    0.91308    0.46968    1.000
    Si2801   Si       0.42748    0.95474    0.45598    1.000
    N2802    N        0.30693    0.92153    0.57404    1.000
    Si2803   Si       0.26933    0.90178    0.57281    1.000
    Si2804   Si       0.33300    0.91672    0.61014    1.000
    Si2805   Si       0.25598    0.94541    0.51805    1.000
    N2806    N        0.26345    0.89616    0.61693    1.000
    N2807    N        0.36077    0.94626    0.53379    1.000
    N2808    N        0.42101    0.89466    0.71044    1.000
    N2809    N        0.37440    0.91872    0.59441    1.000
    Si2810   Si       0.39333    0.93298    0.55920    1.000
    Si2811   Si       0.46122    0.93583    0.58939    1.000
    N2812    N        0.44263    0.89526    0.59992    1.000
    N2813    N        0.40900    0.89769    0.53844    1.000
    N2814    N        0.48801    0.93506    0.55525    1.000
    Si2815   Si       0.41074    0.89070    0.49482    1.000
    Si2816   Si       0.33624    0.91044    0.72655    1.000
    N2817    N        0.30503    0.91127    0.69546    1.000
    N2818    N        0.33738    0.94579    0.64300    1.000
    Si2819   Si       0.24316    0.92439    0.64400    1.000
    N2820    N        0.47268    0.90557    0.66748    1.000
    Si2821   Si       0.46200    0.91549    0.71018    1.000
    Si2822   Si       0.40173    0.91353    0.74426    1.000
    N2823    N        0.37094    0.93824    0.72783    1.000
    Si2824   Si       0.40410    0.90542    0.62172    1.000
    N2825    N        0.41201    0.94286    0.64407    1.000
    N2826    N        0.34144    0.91016    0.81691    1.000
    N2827    N        0.31024    0.92305    0.75976    1.000
    Si2828   Si       0.30601    0.89794    0.79468    1.000
    N2829    N        0.30677    0.94417    0.86666    1.000
    N2830    N        0.23953    0.92060    0.87021    1.000
    N2831    N        0.41120    0.88932    0.83406    1.000
    Si2832   Si       0.41407    0.93239    0.84061    1.000
    N2833    N        0.43931    0.93016    0.75998    1.000
    Si2834   Si       0.47426    0.91033    0.77783    1.000
    N2835    N        0.45005    0.94001    0.86460    1.000
    N2836    N        0.37816    0.94139    0.86454    1.000
    Si2837   Si       0.31544    0.91188    0.89410    1.000
    N2838    N        0.34538    0.92615    0.92407    1.000
    Si2839   Si       0.32162    0.93556    0.95976    1.000
    N2840    N        0.28147    0.91403    0.92084    1.000
    N2841    N        0.25953    0.93584    0.98139    1.000
    Si2842   Si       0.26727    0.89524    0.95910    1.000
    N2843    N        0.34702    0.94147    0.99425    1.000
    Si2844   Si       0.37938    0.94705    0.90716    1.000
    Si2845   Si       0.45224    0.94056    0.90856    1.000
    N2846    N        0.44713    0.91430    0.98324    1.000
    N2847    N        0.48526    0.91581    0.92377    1.000
    N2848    N        0.41318    0.92637    0.92383    1.000
    Si2849   Si       0.48540    0.92854    0.96854    1.000
    Si2850   Si       0.41639    0.89684    0.95644    1.000
    Si2851   Si       0.48812    0.94501    0.84707    1.000
    Si2852   Si       0.34698    0.97263    0.02313    1.000
    Si2853   Si       0.33347    0.97244    0.09855    1.000
    N2854    N        0.25547    0.96618    0.06522    1.000
    N2855    N        0.30799    0.99402    0.01935    1.000
    Si2856   Si       0.24505    0.95692    0.02288    1.000
    N2857    N        0.43502    0.98310    0.14455    1.000
    N2858    N        0.34951    0.95540    0.06219    1.000
    Si2859   Si       0.24115    0.00309    0.08394    1.000
    N2860    N        0.25901    0.00417    0.12279    1.000
    Si2861   Si       0.40454    0.96661    0.11683    1.000
    Si2862   Si       0.45688    0.97835    0.05730    1.000
    N2863    N        0.41647    0.98304    0.07903    1.000
    N2864    N        0.48329    0.98489    0.09114    1.000
    N2865    N        0.37324    0.00753    0.02118    1.000
    N2866    N        0.44556    0.00890    0.02826    1.000
    Si2867   Si       0.46364    0.00690    0.12238    1.000
    N2868    N        0.27371    0.98760    0.24361    1.000
    Si2869   Si       0.29870    0.96303    0.21291    1.000
    N2870    N        0.27407    0.95916    0.17569    1.000
    N2871    N        0.33597    0.98294    0.20428    1.000
    Si2872   Si       0.35827    0.95948    0.17481    1.000
    Si2873   Si       0.24915    0.99201    0.16250    1.000
    N2874    N        0.36213    0.97369    0.13338    1.000
    N2875    N        0.32983    0.97240    0.28841    1.000
    N2876    N        0.30765    0.95980    0.35286    1.000
    Si2877   Si       0.30318    0.00349    0.27640    1.000
    N2878    N        0.44846    0.99198    0.44952    1.000
    Si2879   Si       0.36760    0.95893    0.27286    1.000
    N2880    N        0.40384    0.95528    0.29917    1.000
    Si2881   Si       0.46755    0.98265    0.35369    1.000
    Si2882   Si       0.41518    0.99391    0.28459    1.000
    N2883    N        0.38139    0.99619    0.25536    1.000
    N2884    N        0.44530    0.00158    0.25446    1.000
    N2885    N        0.37464    0.98235    0.36817    1.000
    N2886    N        0.48690    0.99000    0.31627    1.000
    Si2887   Si       0.33020    0.99236    0.36966    1.000
    N2888    N        0.32604    0.95765    0.47316    1.000
    N2889    N        0.32198    0.99993    0.41319    1.000
    Si2890   Si       0.31997    0.96061    0.43122    1.000
    Si2891   Si       0.30684    0.99120    0.49626    1.000
    N2892    N        0.43857    0.00944    0.37084    1.000
    N2893    N        0.39508    0.96774    0.48308    1.000
    Si2894   Si       0.25574    0.94958    0.25637    1.000
    N2895    N        0.29009    0.96872    0.52732    1.000
    N2896    N        0.33240    0.99328    0.57376    1.000
    N2897    N        0.26388    0.99677    0.59653    1.000
    Si2898   Si       0.32323    0.95680    0.55215    1.000
    Si2899   Si       0.44043    0.99900    0.55948    1.000
    N2900    N        0.42940    0.95562    0.57073    1.000
    Si2901   Si       0.38458    0.00236    0.50975    1.000
    N2902    N        0.46226    0.00369    0.52238    1.000
    N2903    N        0.39738    0.00593    0.55166    1.000
    N2904    N        0.37810    0.00814    0.62011    1.000
    N2905    N        0.30880    0.97849    0.70446    1.000
    Si2906   Si       0.25446    0.99763    0.64060    1.000
    N2907    N        0.26634    0.95816    0.65453    1.000
    Si2908   Si       0.30468    0.94925    0.67249    1.000
    N2909    N        0.25124    0.95174    0.73438    1.000
    Si2910   Si       0.37517    0.96646    0.64375    1.000
    N2911    N        0.47891    0.95750    0.62381    1.000
    Si2912   Si       0.37552    0.98273    0.72267    1.000
    N2913    N        0.37654    0.99091    0.68009    1.000
    Si2914   Si       0.44642    0.96405    0.65669    1.000
    N2915    N        0.43608    0.00736    0.65401    1.000
    N2916    N        0.46104    0.95868    0.69906    1.000
    Si2917   Si       0.48040    0.98857    0.72245    1.000
    N2918    N        0.35054    0.98492    0.81776    1.000
    N2919    N        0.29985    0.98972    0.77222    1.000
    N2920    N        0.24824    0.98793    0.85706    1.000
    Si2921   Si       0.34199    0.94785    0.84069    1.000
    N2922    N        0.41438    0.96451    0.81038    1.000
    Si2923   Si       0.43507    0.97271    0.77345    1.000
    N2924    N        0.47450    0.99273    0.76540    1.000
    Si2925   Si       0.39055    0.99959    0.82673    1.000
    Si2926   Si       0.26735    0.95385    0.88335    1.000
    Si2927   Si       0.28632    0.99912    0.98290    1.000
    Si2928   Si       0.34235    0.00248    0.92960    1.000
    N2929    N        0.24670    0.97168    0.91659    1.000
    N2930    N        0.31151    0.97903    0.95320    1.000
    Si2931   Si       0.41676    0.00750    0.90420    1.000
    Si2932   Si       0.48492    0.00171    0.94109    1.000
    N2933    N        0.38126    0.98759    0.92143    1.000
    N2934    N        0.45119    0.98386    0.91608    1.000
    N2935    N        0.24695    0.99501    0.00205    1.000
    Si2936   Si       0.29342    0.95945    0.74264    1.000
    N2937    N        0.41001    0.99649    0.74599    1.000
    Si2938   Si       0.53383    0.04437    0.05500    1.000
    N2939    N        0.51267    0.02894    0.01962    1.000
    Si2940   Si       0.57977    0.01985    0.11534    1.000
    N2941    N        0.59362    0.06012    0.10693    1.000
    N2942    N        0.57100    0.06251    0.03952    1.000
    Si2943   Si       0.71449    0.05505    0.23290    1.000
    N2944    N        0.54816    0.01308    0.08385    1.000
    Si2945   Si       0.62675    0.03429    0.01127    1.000
    N2946    N        0.66515    0.01920    0.11226    1.000
    N2947    N        0.62838    0.04140    0.05324    1.000
    Si2948   Si       0.66366    0.02218    0.06915    1.000
    N2949    N        0.69125    0.05712    0.07111    1.000
    Si2950   Si       0.69350    0.05114    0.11507    1.000
    N2951    N        0.72653    0.01368    0.01800    1.000
    Si2952   Si       0.70870    0.04915    0.00074    1.000
    Si2953   Si       0.54906    0.01530    0.23978    1.000
    N2954    N        0.56405    0.02405    0.15683    1.000
    N2955    N        0.49554    0.03200    0.14312    1.000
    Si2956   Si       0.59800    0.02772    0.18580    1.000
    N2957    N        0.55300    0.05359    0.22023    1.000
    N2958    N        0.63698    0.00969    0.17187    1.000
    Si2959   Si       0.73756    0.03076    0.17060    1.000
    N2960    N        0.73351    0.03762    0.12703    1.000
    Si2961   Si       0.66552    0.02372    0.20503    1.000
    N2962    N        0.70269    0.04467    0.19214    1.000
    N2963    N        0.62784    0.04070    0.22403    1.000
    Si2964   Si       0.50114    0.03079    0.30643    1.000
    N2965    N        0.53997    0.02993    0.32673    1.000
    N2966    N        0.51312    0.02310    0.26497    1.000
    Si2967   Si       0.55542    0.06011    0.35497    1.000
    N2968    N        0.63981    0.04387    0.30740    1.000
    Si2969   Si       0.64227    0.04564    0.26436    1.000
    Si2970   Si       0.69468    0.05610    0.36418    1.000
    N2971    N        0.70155    0.01537    0.35638    1.000
    N2972    N        0.68216    0.03391    0.25132    1.000
    N2973    N        0.65214    0.06399    0.37298    1.000
    N2974    N        0.57552    0.04483    0.39137    1.000
    N2975    N        0.59890    0.04342    0.45976    1.000
    N2976    N        0.49948    0.03072    0.41533    1.000
    Si2977   Si       0.56920    0.05759    0.49336    1.000
    Si2978   Si       0.58324    0.06835    0.42595    1.000
    N2979    N        0.65171    0.00973    0.47771    1.000
    N2980    N        0.70530    0.00971    0.43681    1.000
    Si2981   Si       0.70321    0.05280    0.44006    1.000
    N2982    N        0.71852    0.06155    0.40024    1.000
    Si2983   Si       0.63951    0.05446    0.47715    1.000
    N2984    N        0.66217    0.06757    0.44217    1.000
    Si2985   Si       0.57425    0.02785    0.56849    1.000
    N2986    N        0.58695    0.04815    0.53354    1.000
    N2987    N        0.58871    0.05115    0.60130    1.000
    Si2988   Si       0.50245    0.04205    0.58341    1.000
    Si2989   Si       0.49589    0.03282    0.51121    1.000
    N2990    N        0.53338    0.01364    0.58078    1.000
    N2991    N        0.49683    0.05985    0.54381    1.000
    N2992    N        0.62391    0.01706    0.71199    1.000
    Si2993   Si       0.72315    0.01342    0.53693    1.000
    N2994    N        0.70656    0.05459    0.53578    1.000
    Si2995   Si       0.63142    0.05866    0.60844    1.000
    N2996    N        0.64848    0.01931    0.61800    1.000
    Si2997   Si       0.51477    0.03542    0.67734    1.000
    Si2998   Si       0.58485    0.03562    0.70525    1.000
    N2999    N        0.50470    0.02050    0.63812    1.000
    N3000    N        0.55184    0.01522    0.68663    1.000
    Si3001   Si       0.72871    0.04374    0.70235    1.000
    Si3002   Si       0.65906    0.03963    0.71796    1.000
    N3003    N        0.70379    0.06269    0.63223    1.000
    Si3004   Si       0.68295    0.02594    0.64433    1.000
    N3005    N        0.68919    0.02945    0.68786    1.000
    N3006    N        0.53661    0.02514    0.49636    1.000
    N3007    N        0.54733    0.02918    0.85842    1.000
    N3008    N        0.50881    0.05754    0.77049    1.000
    N3009    N        0.59877    0.03653    0.81112    1.000
    Si3010   Si       0.49485    0.02101    0.79198    1.000
    Si3011   Si       0.72068    0.04328    0.92211    1.000
    Si3012   Si       0.61321    0.02714    0.76726    1.000
    N3013    N        0.57731    0.04282    0.74846    1.000
    N3014    N        0.65588    0.04343    0.76217    1.000
    N3015    N        0.70097    0.04686    0.81393    1.000
    N3016    N        0.63726    0.01616    0.87004    1.000
    N3017    N        0.58144    0.03849    0.91435    1.000
    Si3018   Si       0.55187    0.03196    0.94672    1.000
    Si3019   Si       0.56185    0.06183    0.88319    1.000
    N3020    N        0.52126    0.01490    0.92393    1.000
    N3021    N        0.60825    0.06649    0.98580    1.000
    N3022    N        0.66779    0.03924    0.99058    1.000
    N3023    N        0.70088    0.06213    0.88625    1.000
    Si3024   Si       0.68083    0.02369    0.88252    1.000
    N3025    N        0.72666    0.06136    0.96108    1.000
    N3026    N        0.69042    0.01199    0.92484    1.000
    N3027    N        0.52352    0.10041    0.01543    1.000
    N3028    N        0.60442    0.11628    0.06681    1.000
    Si3029   Si       0.60204    0.07350    0.06690    1.000
    Si3030   Si       0.49138    0.09530    0.04240    1.000
    Si3031   Si       0.56936    0.08205    0.99867    1.000
    Si3032   Si       0.70878    0.09459    0.06085    1.000
    N3033    N        0.72233    0.08594    0.02138    1.000
    N3034    N        0.55121    0.10129    0.15578    1.000
    Si3035   Si       0.59067    0.09088    0.13982    1.000
    Si3036   Si       0.56247    0.08629    0.19512    1.000
    N3037    N        0.58612    0.11485    0.21811    1.000
    N3038    N        0.49845    0.10902    0.19696    1.000
    Si3039   Si       0.51373    0.12199    0.15754    1.000
    N3040    N        0.60045    0.07151    0.17846    1.000
    Si3041   Si       0.68095    0.12506    0.22988    1.000
    N3042    N        0.68860    0.09105    0.13129    1.000
    Si3043   Si       0.72068    0.12130    0.12608    1.000
    Si3044   Si       0.62227    0.08845    0.21503    1.000
    N3045    N        0.62337    0.12001    0.13362    1.000
    N3046    N        0.65654    0.11123    0.19811    1.000
    Si3047   Si       0.66159    0.11987    0.15435    1.000
    N3048    N        0.71538    0.09782    0.24156    1.000
    N3049    N        0.74099    0.09322    0.09038    1.000
    N3050    N        0.50490    0.06871    0.07504    1.000
    N3051    N        0.58778    0.08329    0.33570    1.000
    Si3052   Si       0.49955    0.09954    0.33714    1.000
    Si3053   Si       0.57241    0.12203    0.32630    1.000
    N3054    N        0.53027    0.12166    0.31744    1.000
    N3055    N        0.51984    0.07931    0.36902    1.000
    N3056    N        0.64459    0.11375    0.32509    1.000
    N3057    N        0.70597    0.08772    0.33774    1.000
    N3058    N        0.63508    0.08903    0.26036    1.000
    Si3059   Si       0.62948    0.07394    0.33739    1.000
    Si3060   Si       0.63240    0.12257    0.28556    1.000
    N3061    N        0.66999    0.12559    0.38865    1.000
    N3062    N        0.60737    0.10167    0.41359    1.000
    N3063    N        0.54373    0.07861    0.43704    1.000
    Si3064   Si       0.54434    0.11555    0.46033    1.000
    Si3065   Si       0.50868    0.07382    0.41176    1.000
    Si3066   Si       0.64846    0.09005    0.40739    1.000
    N3067    N        0.72737    0.07390    0.46920    1.000
    N3068    N        0.50140    0.08525    0.60029    1.000
    Si3069   Si       0.49363    0.10257    0.56207    1.000
    Si3070   Si       0.61093    0.08463    0.54314    1.000
    N3071    N        0.58957    0.12080    0.55231    1.000
    N3072    N        0.69807    0.11133    0.58136    1.000
    Si3073   Si       0.68114    0.08935    0.54703    1.000
    N3074    N        0.68845    0.12121    0.51561    1.000
    N3075    N        0.64462    0.07761    0.56896    1.000
    N3076    N        0.63526    0.08543    0.50661    1.000
    Si3077   Si       0.49407    0.09181    0.64196    1.000
    N3078    N        0.59298    0.07611    0.68871    1.000
    N3079    N        0.52124    0.07791    0.67365    1.000
    N3080    N        0.54762    0.10599    0.73049    1.000
    Si3081   Si       0.55628    0.09893    0.68682    1.000
    Si3082   Si       0.69034    0.10599    0.72975    1.000
    Si3083   Si       0.68317    0.09887    0.62095    1.000
    N3084    N        0.64313    0.08816    0.63857    1.000
    N3085    N        0.72484    0.07945    0.72594    1.000
    N3086    N        0.65686    0.08315    0.71152    1.000
    Si3087   Si       0.63077    0.09541    0.67954    1.000
    Si3088   Si       0.74040    0.06853    0.51084    1.000
    N3089    N        0.56755    0.10090    0.49220    1.000
    N3090    N        0.57145    0.09718    0.79379    1.000
    N3091    N        0.59488    0.08241    0.86410    1.000
    Si3092   Si       0.59989    0.08004    0.82097    1.000
    Si3093   Si       0.54911    0.07198    0.76602    1.000
    N3094    N        0.64388    0.08910    0.81953    1.000
    N3095    N        0.70650    0.11332    0.83807    1.000
    N3096    N        0.68279    0.11526    0.77355    1.000
    Si3097   Si       0.67435    0.07286    0.79114    1.000
    Si3098   Si       0.66348    0.11973    0.84133    1.000
    Si3099   Si       0.71986    0.07215    0.84614    1.000
    N3100    N        0.53068    0.08822    0.89596    1.000
    Si3101   Si       0.54576    0.10286    0.93384    1.000
    N3102    N        0.58715    0.11298    0.92648    1.000
    N3103    N        0.54537    0.07110    0.96206    1.000
    Si3104   Si       0.61651    0.09610    0.89888    1.000
    Si3105   Si       0.64905    0.06816    0.96496    1.000
    N3106    N        0.67157    0.10345    0.97588    1.000
    Si3107   Si       0.68045    0.09802    0.90548    1.000
    N3108    N        0.65121    0.12357    0.88602    1.000
    Si3109   Si       0.71508    0.11275    0.97000    1.000
    N3110    N        0.64708    0.07416    0.92143    1.000
    N3111    N        0.70972    0.12300    0.92675    1.000
    Si3112   Si       0.59811    0.14319    0.03378    1.000
    N3113    N        0.51967    0.17194    0.01073    1.000
    Si3114   Si       0.60731    0.14407    0.10057    1.000
    N3115    N        0.57073    0.15830    0.11649    1.000
    N3116    N        0.57773    0.18170    0.04299    1.000
    N3117    N        0.63939    0.14916    0.02022    1.000
    Si3118   Si       0.66150    0.16326    0.05359    1.000
    N3119    N        0.63104    0.17675    0.08424    1.000
    N3120    N        0.68789    0.13253    0.06414    1.000
    N3121    N        0.52128    0.16538    0.16331    1.000
    Si3122   Si       0.49732    0.13266    0.23269    1.000
    N3123    N        0.59427    0.18594    0.23547    1.000
    Si3124   Si       0.55053    0.18795    0.13975    1.000
    N3125    N        0.69173    0.15052    0.14431    1.000
    N3126    N        0.70627    0.15651    0.21275    1.000
    Si3127   Si       0.74513    0.14763    0.19374    1.000
    Si3128   Si       0.52620    0.15759    0.29120    1.000
    N3129    N        0.57090    0.14316    0.36311    1.000
    N3130    N        0.59035    0.13652    0.28722    1.000
    N3131    N        0.53436    0.14483    0.25227    1.000
    Si3132   Si       0.55625    0.18333    0.35608    1.000
    Si3133   Si       0.73296    0.16937    0.32548    1.000
    N3134    N        0.68854    0.16713    0.33249    1.000
    N3135    N        0.65474    0.14914    0.25703    1.000
    N3136    N        0.73674    0.16109    0.28284    1.000
    N3137    N        0.55202    0.14762    0.43211    1.000
    N3138    N        0.51434    0.13537    0.48521    1.000
    Si3139   Si       0.58701    0.13911    0.40513    1.000
    Si3140   Si       0.52589    0.18521    0.42874    1.000
    Si3141   Si       0.65715    0.15442    0.41758    1.000
    Si3142   Si       0.64993    0.12840    0.49759    1.000
    N3143    N        0.61959    0.16598    0.40275    1.000
    N3144    N        0.65479    0.13708    0.45658    1.000
    Si3145   Si       0.68032    0.12470    0.34586    1.000
    Si3146   Si       0.57727    0.14687    0.24652    1.000
    Si3147   Si       0.60013    0.16434    0.54650    1.000
    N3148    N        0.56642    0.17319    0.52133    1.000
    Si3149   Si       0.55510    0.13012    0.52256    1.000
    N3150    N        0.52059    0.13171    0.54709    1.000
    N3151    N        0.69524    0.13476    0.64371    1.000
    Si3152   Si       0.71444    0.15410    0.50681    1.000
    Si3153   Si       0.71204    0.15387    0.57720    1.000
    N3154    N        0.63261    0.16122    0.51904    1.000
    N3155    N        0.67621    0.17416    0.56886    1.000
    N3156    N        0.69711    0.14233    0.70893    1.000
    N3157    N        0.49061    0.13413    0.64857    1.000
    N3158    N        0.56370    0.13402    0.66464    1.000
    N3159    N        0.51209    0.16399    0.70523    1.000
    Si3160   Si       0.52332    0.15905    0.66253    1.000
    Si3161   Si       0.59870    0.15923    0.66283    1.000
    Si3162   Si       0.51057    0.13246    0.73301    1.000
    N3163    N        0.61952    0.16138    0.62287    1.000
    Si3164   Si       0.73837    0.13810    0.64025    1.000
    N3165    N        0.63203    0.13891    0.68272    1.000
    Si3166   Si       0.67165    0.15376    0.67558    1.000
    Si3167   Si       0.73998    0.15707    0.71550    1.000
    Si3168   Si       0.64225    0.18530    0.59620    1.000
    N3169    N        0.52698    0.15262    0.76717    1.000
    Si3170   Si       0.56411    0.13166    0.76406    1.000
    N3171    N        0.59505    0.15801    0.74848    1.000
    N3172    N        0.66020    0.16282    0.82764    1.000
    Si3173   Si       0.68219    0.15970    0.78839    1.000
    N3174    N        0.72101    0.17420    0.80196    1.000
    Si3175   Si       0.73442    0.14472    0.83100    1.000
    N3176    N        0.57886    0.12835    0.99638    1.000
    N3177    N        0.57491    0.18364    0.94427    1.000
    Si3178   Si       0.59350    0.14630    0.95570    1.000
    N3179    N        0.52682    0.13834    0.95137    1.000
    Si3180   Si       0.53223    0.17855    0.93201    1.000
    N3181    N        0.54616    0.18114    0.89081    1.000
    Si3182   Si       0.53575    0.13504    0.99419    1.000
    Si3183   Si       0.72022    0.16324    0.90930    1.000
    Si3184   Si       0.66221    0.14526    0.98439    1.000
    N3185    N        0.70436    0.15728    0.98646    1.000
    N3186    N        0.63636    0.15515    0.95020    1.000
    Si3187   Si       0.64815    0.16425    0.90814    1.000
    N3188    N        0.68446    0.18773    0.90936    1.000
    N3189    N        0.51966    0.22153    0.05367    1.000
    Si3190   Si       0.54506    0.20389    0.02326    1.000
    Si3191   Si       0.60242    0.20703    0.06890    1.000
    N3192    N        0.57909    0.23154    0.09852    1.000
    Si3193   Si       0.53784    0.23886    0.08908    1.000
    N3194    N        0.52035    0.21218    0.12036    1.000
    N3195    N        0.61713    0.23848    0.04185    1.000
    N3196    N        0.71461    0.21324    0.11064    1.000
    N3197    N        0.67805    0.20149    0.03469    1.000
    Si3198   Si       0.66052    0.24188    0.04047    1.000
    Si3199   Si       0.71439    0.19306    0.01176    1.000
    Si3200   Si       0.58710    0.24417    0.14144    1.000
    N3201    N        0.53329    0.21554    0.21252    1.000
    N3202    N        0.58109    0.20780    0.16453    1.000
    Si3203   Si       0.57726    0.21368    0.20787    1.000
    Si3204   Si       0.50369    0.19424    0.18963    1.000
    Si3205   Si       0.69529    0.19871    0.21159    1.000
    N3206    N        0.73585    0.21315    0.22321    1.000
    Si3207   Si       0.71080    0.18933    0.14720    1.000
    N3208    N        0.65846    0.21372    0.23177    1.000
    N3209    N        0.68437    0.21314    0.17204    1.000
    N3210    N        0.59282    0.20618    0.35276    1.000
    Si3211   Si       0.58829    0.20977    0.30895    1.000
    Si3212   Si       0.50495    0.21591    0.31724    1.000
    N3213    N        0.54703    0.19172    0.31132    1.000
    N3214    N        0.62993    0.19895    0.29777    1.000
    Si3215   Si       0.66511    0.20155    0.32469    1.000
    N3216    N        0.65460    0.22019    0.36234    1.000
    N3217    N        0.69275    0.23363    0.30705    1.000
    Si3218   Si       0.72693    0.23925    0.33405    1.000
    Si3219   Si       0.63312    0.18914    0.25612    1.000
    N3220    N        0.54325    0.21910    0.44988    1.000
    N3221    N        0.54023    0.20220    0.39182    1.000
    Si3222   Si       0.56362    0.23188    0.41411    1.000
    N3223    N        0.60673    0.23070    0.41569    1.000
    N3224    N        0.68330    0.18874    0.42104    1.000
    N3225    N        0.65051    0.23309    0.47404    1.000
    Si3226   Si       0.62264    0.20520    0.38447    1.000
    N3227    N        0.72691    0.21782    0.45220    1.000
    Si3228   Si       0.68372    0.20585    0.46012    1.000
    Si3229   Si       0.72038    0.21049    0.40839    1.000
    N3230    N        0.71588    0.24410    0.37698    1.000
    N3231    N        0.48662    0.24852    0.40404    1.000
    N3232    N        0.54273    0.21795    0.57629    1.000
    Si3233   Si       0.51263    0.21602    0.60899    1.000
    Si3234   Si       0.58346    0.23206    0.58297    1.000
    Si3235   Si       0.53655    0.20315    0.53481    1.000
    N3236    N        0.49589    0.19242    0.52604    1.000
    N3237    N        0.60862    0.19898    0.57144    1.000
    N3238    N        0.66303    0.21729    0.61641    1.000
    Si3239   Si       0.66200    0.19427    0.53107    1.000
    N3240    N        0.65922    0.23563    0.54320    1.000
    N3241    N        0.69011    0.18856    0.49821    1.000
    N3242    N        0.72522    0.19472    0.72473    1.000
    N3243    N        0.58919    0.23756    0.62454    1.000
    N3244    N        0.58900    0.19584    0.68406    1.000
    Si3245   Si       0.59571    0.19683    0.72921    1.000
    N3246    N        0.53086    0.19809    0.64385    1.000
    Si3247   Si       0.56438    0.22069    0.65897    1.000
    N3248    N        0.55749    0.21428    0.74487    1.000
    Si3249   Si       0.67263    0.23082    0.65488    1.000
    Si3250   Si       0.68321    0.20502    0.72471    1.000
    N3251    N        0.62491    0.22962    0.73889    1.000
    N3252    N        0.67270    0.19817    0.68246    1.000
    N3253    N        0.54770    0.24157    0.51873    1.000
    Si3254   Si       0.58085    0.23042    0.81791    1.000
    N3255    N        0.56910    0.23025    0.86267    1.000
    N3256    N        0.55000    0.20103    0.80966    1.000
    Si3257   Si       0.52969    0.19449    0.77109    1.000
    Si3258   Si       0.53714    0.19641    0.85202    1.000
    N3259    N        0.49489    0.19102    0.84988    1.000
    N3260    N        0.72168    0.22187    0.98004    1.000
    N3261    N        0.62031    0.21705    0.81514    1.000
    Si3262   Si       0.64370    0.19813    0.84812    1.000
    Si3263   Si       0.64515    0.22274    0.77877    1.000
    N3264    N        0.67243    0.23041    0.86030    1.000
    N3265    N        0.73462    0.23927    0.83391    1.000
    N3266    N        0.66807    0.18942    0.76132    1.000
    N3267    N        0.51989    0.22297    0.94387    1.000
    Si3268   Si       0.58382    0.20429    0.90040    1.000
    N3269    N        0.56237    0.23080    0.99555    1.000
    Si3270   Si       0.68481    0.23040    0.90224    1.000
    N3271    N        0.61860    0.18543    0.88491    1.000
    N3272    N        0.52336    0.27919    0.08731    1.000
    Si3273   Si       0.58982    0.25763    0.01322    1.000
    N3274    N        0.57364    0.29434    0.03181    1.000
    N3275    N        0.67300    0.26007    0.07693    1.000
    Si3276   Si       0.64772    0.27901    0.10739    1.000
    Si3277   Si       0.70976    0.25535    0.10311    1.000
    N3278    N        0.67152    0.26498    0.00567    1.000
    Si3279   Si       0.51760    0.29054    0.12933    1.000
    N3280    N        0.55426    0.27190    0.14576    1.000
    N3281    N        0.53112    0.28481    0.22707    1.000
    Si3282   Si       0.57325    0.29154    0.22591    1.000
    N3283    N        0.59442    0.25230    0.22241    1.000
    Si3284   Si       0.51784    0.24512    0.23828    1.000
    Si3285   Si       0.63757    0.25161    0.23074    1.000
    N3286    N        0.65902    0.27440    0.20032    1.000
    Si3287   Si       0.62752    0.29603    0.17782    1.000
    N3288    N        0.62564    0.26494    0.14612    1.000
    N3289    N        0.68448    0.27866    0.13223    1.000
    Si3290   Si       0.69272    0.29832    0.21490    1.000
    Si3291   Si       0.66620    0.25060    0.16296    1.000
    Si3292   Si       0.53848    0.26925    0.30918    1.000
    Si3293   Si       0.60673    0.28222    0.29285    1.000
    N3294    N        0.57654    0.25108    0.30182    1.000
    N3295    N        0.50903    0.24740    0.28335    1.000
    N3296    N        0.52083    0.25065    0.34388    1.000
    N3297    N        0.64065    0.26895    0.26992    1.000
    Si3298   Si       0.68153    0.27150    0.28493    1.000
    N3299    N        0.66674    0.29479    0.36321    1.000
    N3300    N        0.70936    0.27962    0.25124    1.000
    N3301    N        0.50843    0.27390    0.46773    1.000
    Si3302   Si       0.51756    0.27137    0.38150    1.000
    N3303    N        0.58768    0.26937    0.46520    1.000
    N3304    N        0.55368    0.27410    0.40281    1.000
    Si3305   Si       0.54684    0.25344    0.47606    1.000
    N3306    N        0.66801    0.26251    0.42079    1.000
    Si3307   Si       0.67410    0.25484    0.37900    1.000
    N3308    N        0.66850    0.29268    0.47988    1.000
    N3309    N        0.73288    0.28663    0.42968    1.000
    Si3310   Si       0.69100    0.29204    0.44281    1.000
    Si3311   Si       0.62871    0.25925    0.44416    1.000
    N3312    N        0.73731    0.27862    0.31610    1.000
    N3313    N        0.61773    0.30179    0.41842    1.000
    Si3314   Si       0.55644    0.27833    0.54078    1.000
    N3315    N        0.59193    0.27250    0.56370    1.000
    N3316    N        0.52700    0.29765    0.56746    1.000
    N3317    N        0.50010    0.25738    0.61939    1.000
    Si3318   Si       0.49131    0.27945    0.58488    1.000
    N3319    N        0.64660    0.27785    0.60355    1.000
    N3320    N        0.71412    0.25488    0.51221    1.000
    Si3321   Si       0.66989    0.25619    0.50557    1.000
    Si3322   Si       0.73311    0.27116    0.54887    1.000
    N3323    N        0.71498    0.25276    0.58270    1.000
    Si3324   Si       0.62616    0.29776    0.57323    1.000
    Si3325   Si       0.67109    0.24617    0.58465    1.000
    N3326    N        0.58224    0.28417    0.72402    1.000
    N3327    N        0.54562    0.25962    0.67178    1.000
    Si3328   Si       0.50477    0.26981    0.65999    1.000
    Si3329   Si       0.56785    0.29484    0.68432    1.000
    N3330    N        0.64071    0.25804    0.67106    1.000
    Si3331   Si       0.71360    0.27097    0.69011    1.000
    Si3332   Si       0.64219    0.26110    0.71544    1.000
    N3333    N        0.64528    0.30096    0.73025    1.000
    N3334    N        0.68727    0.25071    0.72101    1.000
    N3335    N        0.71187    0.25181    0.65128    1.000
    Si3336   Si       0.61811    0.27189    0.63725    1.000
    Si3337   Si       0.73858    0.25871    0.61767    1.000
    N3338    N        0.57247    0.26332    0.79092    1.000
    N3339    N        0.50943    0.26084    0.82841    1.000
    N3340    N        0.51693    0.27394    0.75429    1.000
    Si3341   Si       0.51090    0.29140    0.79496    1.000
    N3342    N        0.59028    0.28984    0.85313    1.000
    Si3343   Si       0.55836    0.25692    0.75029    1.000
    Si3344   Si       0.49884    0.27487    0.86736    1.000
    Si3345   Si       0.57801    0.29898    0.81204    1.000
    Si3346   Si       0.70457    0.26584    0.75850    1.000
    N3347    N        0.70524    0.29328    0.84727    1.000
    Si3348   Si       0.69367    0.25513    0.83204    1.000
    N3349    N        0.67639    0.25296    0.79083    1.000
    N3350    N        0.53334    0.28228    0.89779    1.000
    Si3351   Si       0.57132    0.26775    0.88604    1.000
    N3352    N        0.54776    0.29027    0.96392    1.000
    N3353    N        0.60969    0.27692    0.97855    1.000
    N3354    N        0.58827    0.24428    0.92183    1.000
    Si3355   Si       0.55826    0.24474    0.95443    1.000
    Si3356   Si       0.64489    0.29804    0.99528    1.000
    N3357    N        0.72614    0.28676    0.96264    1.000
    Si3358   Si       0.62538    0.26647    0.93748    1.000
    N3359    N        0.72416    0.24774    0.90135    1.000
    N3360    N        0.62649    0.30058    0.91127    1.000
    N3361    N        0.66696    0.24946    0.93823    1.000
    Si3362   Si       0.69556    0.25562    0.97081    1.000
    N3363    N        0.56901    0.33474    0.07781    1.000
    N3364    N        0.50493    0.32648    0.04306    1.000
    Si3365   Si       0.60402    0.31868    0.05967    1.000
    Si3366   Si       0.55621    0.35629    0.11390    1.000
    N3367    N        0.55053    0.35019    0.00303    1.000
    Si3368   Si       0.54091    0.30617    0.05844    1.000
    Si3369   Si       0.51109    0.36246    0.01845    1.000
    N3370    N        0.71194    0.33936    0.00594    1.000
    N3371    N        0.63288    0.32459    0.02779    1.000
    N3372    N        0.63019    0.31792    0.09435    1.000
    Si3373   Si       0.50710    0.35100    0.17267    1.000
    Si3374   Si       0.50060    0.31504    0.23785    1.000
    N3375    N        0.52572    0.33286    0.13594    1.000
    N3376    N        0.59492    0.31581    0.19919    1.000
    Si3377   Si       0.58461    0.35486    0.18635    1.000
    N3378    N        0.58757    0.35292    0.14242    1.000
    N3379    N        0.70908    0.35407    0.12633    1.000
    Si3380   Si       0.62576    0.34590    0.12654    1.000
    N3381    N        0.67494    0.33474    0.23243    1.000
    N3382    N        0.65098    0.33071    0.16442    1.000
    N3383    N        0.71897    0.30814    0.18241    1.000
    Si3384   Si       0.69209    0.32125    0.15027    1.000
    Si3385   Si       0.55327    0.33307    0.28876    1.000
    Si3386   Si       0.59536    0.34110    0.34425    1.000
    Si3387   Si       0.50097    0.33488    0.34471    1.000
    N3388    N        0.52931    0.31247    0.31957    1.000
    N3389    N        0.52721    0.34385    0.25554    1.000
    N3390    N        0.58178    0.30705    0.26565    1.000
    N3391    N        0.61415    0.30945    0.32360    1.000
    Si3392   Si       0.69443    0.34217    0.27094    1.000
    Si3393   Si       0.65460    0.32332    0.33326    1.000
    Si3394   Si       0.71888    0.31852    0.32405    1.000
    N3395    N        0.68005    0.31235    0.30064    1.000
    N3396    N        0.63587    0.35001    0.36553    1.000
    Si3397   Si       0.64917    0.31936    0.39622    1.000
    N3398    N        0.69983    0.36033    0.33575    1.000
    N3399    N        0.56666    0.33740    0.37599    1.000
    Si3400   Si       0.58612    0.31147    0.47646    1.000
    Si3401   Si       0.57592    0.31235    0.40945    1.000
    Si3402   Si       0.51446    0.31326    0.48504    1.000
    N3403    N        0.56272    0.33281    0.44452    1.000
    N3404    N        0.49560    0.30910    0.38145    1.000
    N3405    N        0.51141    0.35702    0.47557    1.000
    N3406    N        0.68263    0.33111    0.42282    1.000
    N3407    N        0.61720    0.34006    0.48755    1.000
    Si3408   Si       0.51328    0.33637    0.58026    1.000
    N3409    N        0.55396    0.30636    0.50618    1.000
    N3410    N        0.55103    0.35507    0.60055    1.000
    N3411    N        0.61486    0.33671    0.59309    1.000
    Si3412   Si       0.68983    0.34097    0.55116    1.000
    N3413    N        0.69097    0.35300    0.50757    1.000
    N3414    N        0.65468    0.31399    0.54436    1.000
    N3415    N        0.72688    0.31472    0.55033    1.000
    N3416    N        0.71297    0.35254    0.59469    1.000
    Si3417   Si       0.65594    0.32639    0.50177    1.000
    Si3418   Si       0.58545    0.34309    0.62497    1.000
    N3419    N        0.60495    0.35601    0.72931    1.000
    N3420    N        0.55167    0.33577    0.69204    1.000
    Si3421   Si       0.50789    0.33647    0.69270    1.000
    N3422    N        0.50219    0.31266    0.65560    1.000
    Si3423   Si       0.60678    0.31435    0.74545    1.000
    N3424    N        0.59186    0.30476    0.64921    1.000
    N3425    N        0.69802    0.31078    0.68311    1.000
    Si3426   Si       0.68214    0.32363    0.72230    1.000
    N3427    N        0.53943    0.31949    0.80849    1.000
    N3428    N        0.60821    0.31940    0.78884    1.000
    Si3429   Si       0.69077    0.33265    0.84173    1.000
    N3430    N        0.64526    0.33382    0.84483    1.000
    Si3431   Si       0.62074    0.35200    0.81312    1.000
    N3432    N        0.70429    0.35892    0.81224    1.000
    N3433    N        0.71698    0.30723    0.74599    1.000
    Si3434   Si       0.49323    0.35329    0.88295    1.000
    N3435    N        0.60030    0.34222    0.96813    1.000
    N3436    N        0.50957    0.34147    0.92051    1.000
    Si3437   Si       0.57330    0.31505    0.98857    1.000
    N3438    N        0.59675    0.35310    0.89753    1.000
    Si3439   Si       0.51675    0.30255    0.93674    1.000
    Si3440   Si       0.61558    0.32080    0.87255    1.000
    N3441    N        0.70372    0.35542    0.87772    1.000
    Si3442   Si       0.68605    0.35225    0.97045    1.000
    N3443    N        0.66062    0.31979    0.96213    1.000
    Si3444   Si       0.62660    0.33902    0.93350    1.000
    Si3445   Si       0.54205    0.36024    0.82218    1.000
    N3446    N        0.53588    0.39372    0.10151    1.000
    N3447    N        0.50174    0.39789    0.03987    1.000
    Si3448   Si       0.49618    0.39562    0.08428    1.000
    N3449    N        0.60764    0.38364    0.02208    1.000
    N3450    N        0.68081    0.39623    0.20523    1.000
    Si3451   Si       0.68080    0.41376    0.24712    1.000
    Si3452   Si       0.68267    0.38173    0.09936    1.000
    N3453    N        0.68034    0.36870    0.05756    1.000
    Si3454   Si       0.64809    0.36758    0.02793    1.000
    N3455    N        0.64401    0.38444    0.12003    1.000
    N3456    N        0.70868    0.41807    0.09794    1.000
    Si3457   Si       0.72082    0.35990    0.04285    1.000
    Si3458   Si       0.61187    0.41154    0.22728    1.000
    Si3459   Si       0.54009    0.37807    0.23372    1.000
    N3460    N        0.54291    0.36267    0.19334    1.000
    N3461    N        0.61717    0.37688    0.20359    1.000
    Si3462   Si       0.65717    0.35917    0.20019    1.000
    Si3463   Si       0.57130    0.40308    0.29372    1.000
    N3464    N        0.51166    0.37498    0.35547    1.000
    N3465    N        0.57580    0.39681    0.25022    1.000
    N3466    N        0.57396    0.36327    0.31079    1.000
    Si3467   Si       0.68918    0.37317    0.42680    1.000
    N3468    N        0.50901    0.40661    0.24576    1.000
    N3469    N        0.65103    0.41604    0.36247    1.000
    Si3470   Si       0.68872    0.39805    0.35780    1.000
    N3471    N        0.69407    0.38559    0.27603    1.000
    Si3472   Si       0.72889    0.38746    0.30784    1.000
    N3473    N        0.58850    0.39911    0.37317    1.000
    Si3474   Si       0.54982    0.37733    0.38002    1.000
    N3475    N        0.57056    0.39554    0.47218    1.000
    N3476    N        0.53017    0.39253    0.41597    1.000
    Si3477   Si       0.54306    0.37085    0.44987    1.000
    Si3478   Si       0.60299    0.38145    0.49640    1.000
    N3479    N        0.63267    0.41153    0.48565    1.000
    Si3480   Si       0.72791    0.37112    0.49184    1.000
    N3481    N        0.64639    0.38621    0.42355    1.000
    N3482    N        0.71456    0.38709    0.39200    1.000
    N3483    N        0.71967    0.39335    0.45454    1.000
    Si3484   Si       0.62771    0.38654    0.38476    1.000
    N3485    N        0.59402    0.37824    0.53996    1.000
    Si3486   Si       0.55652    0.37759    0.56003    1.000
    Si3487   Si       0.52869    0.39333    0.61263    1.000
    N3488    N        0.54853    0.41711    0.57961    1.000
    N3489    N        0.51710    0.36422    0.54554    1.000
    N3490    N        0.61373    0.40818    0.59716    1.000
    N3491    N        0.49110    0.37226    0.61152    1.000
    Si3492   Si       0.62349    0.37440    0.57153    1.000
    N3493    N        0.66576    0.37727    0.56133    1.000
    Si3494   Si       0.68736    0.38522    0.60104    1.000
    Si3495   Si       0.68452    0.41434    0.54364    1.000
    Si3496   Si       0.70228    0.39668    0.73262    1.000
    Si3497   Si       0.57949    0.36915    0.69558    1.000
    N3498    N        0.59469    0.37576    0.65426    1.000
    Si3499   Si       0.52096    0.41393    0.68479    1.000
    N3500    N        0.55881    0.40626    0.70552    1.000
    N3501    N        0.49500    0.37800    0.68800    1.000
    N3502    N        0.66455    0.38772    0.63725    1.000
    Si3503   Si       0.63720    0.38094    0.74661    1.000
    Si3504   Si       0.62582    0.40520    0.64026    1.000
    N3505    N        0.67513    0.36411    0.73012    1.000
    N3506    N        0.62733    0.41861    0.72811    1.000
    N3507    N        0.53122    0.39666    0.80164    1.000
    N3508    N        0.52933    0.36530    0.86284    1.000
    N3509    N        0.58448    0.36607    0.83328    1.000
    Si3510   Si       0.48907    0.40043    0.78871    1.000
    Si3511   Si       0.69126    0.38084    0.90931    1.000
    N3512    N        0.63300    0.38608    0.78815    1.000
    Si3513   Si       0.70644    0.40362    0.81049    1.000
    N3514    N        0.69663    0.41472    0.76958    1.000
    Si3515   Si       0.56975    0.37730    0.87393    1.000
    N3516    N        0.55172    0.39432    0.95651    1.000
    Si3517   Si       0.51243    0.37617    0.94657    1.000
    Si3518   Si       0.58334    0.37828    0.98416    1.000
    N3519    N        0.50542    0.40947    0.92026    1.000
    N3520    N        0.56919    0.41921    0.88615    1.000
    N3521    N        0.48905    0.36674    0.98196    1.000
    N3522    N        0.66701    0.38518    0.99232    1.000
    N3523    N        0.65174    0.37624    0.93000    1.000
    Si3524   Si       0.64632    0.40724    0.96113    1.000
    N3525    N        0.71463    0.35905    0.94000    1.000
    N3526    N        0.54561    0.45956    0.08367    1.000
    N3527    N        0.57281    0.44928    0.02047    1.000
    Si3528   Si       0.50453    0.46332    0.09752    1.000
    Si3529   Si       0.56248    0.42596    0.10262    1.000
    Si3530   Si       0.60528    0.42382    0.03519    1.000
    N3531    N        0.64498    0.44297    0.03341    1.000
    N3532    N        0.65201    0.45208    0.10435    1.000
    N3533    N        0.71476    0.45617    0.00764    1.000
    Si3534   Si       0.62189    0.42180    0.11278    1.000
    Si3535   Si       0.64359    0.47359    0.06572    1.000
    Si3536   Si       0.69262    0.44926    0.12081    1.000
    Si3537   Si       0.49965    0.42236    0.16775    1.000
    Si3538   Si       0.57199    0.44720    0.17289    1.000
    N3539    N        0.50260    0.45656    0.14040    1.000
    Si3540   Si       0.50797    0.44627    0.22485    1.000
    N3541    N        0.53605    0.43131    0.19133    1.000
    N3542    N        0.58774    0.42986    0.13741    1.000
    N3543    N        0.60249    0.44650    0.20334    1.000
    Si3544   Si       0.71307    0.42198    0.19326    1.000
    N3545    N        0.71379    0.44060    0.23452    1.000
    N3546    N        0.70530    0.44975    0.16323    1.000
    N3547    N        0.59871    0.41944    0.07746    1.000
    Si3548   Si       0.67118    0.45585    0.00154    1.000
    N3549    N        0.60269    0.42804    0.31064    1.000
    Si3550   Si       0.49849    0.42747    0.28311    1.000
    Si3551   Si       0.61073    0.43136    0.35305    1.000
    N3552    N        0.53546    0.42378    0.30623    1.000
    N3553    N        0.60987    0.47085    0.36847    1.000
    N3554    N        0.64117    0.42771    0.25661    1.000
    Si3555   Si       0.62297    0.45560    0.28435    1.000
    Si3556   Si       0.72685    0.46300    0.32917    1.000
    N3557    N        0.71481    0.42193    0.33181    1.000
    Si3558   Si       0.72983    0.47455    0.25425    1.000
    N3559    N        0.49167    0.46507    0.26243    1.000
    N3560    N        0.49871    0.43934    0.37770    1.000
    N3561    N        0.60306    0.44759    0.43411    1.000
    Si3562   Si       0.57084    0.43844    0.46183    1.000
    N3563    N        0.52947    0.44672    0.45415    1.000
    Si3564   Si       0.50553    0.42830    0.42062    1.000
    Si3565   Si       0.51709    0.47236    0.48708    1.000
    Si3566   Si       0.63599    0.42139    0.44284    1.000
    N3567    N        0.73607    0.46630    0.46986    1.000
    Si3568   Si       0.70627    0.43426    0.46719    1.000
    N3569    N        0.67264    0.44546    0.44201    1.000
    Si3570   Si       0.51965    0.44863    0.56539    1.000
    Si3571   Si       0.58675    0.43978    0.58867    1.000
    N3572    N        0.53105    0.46594    0.52820    1.000
    N3573    N        0.59308    0.47579    0.56264    1.000
    N3574    N        0.51749    0.47857    0.59759    1.000
    N3575    N        0.58750    0.46092    0.49597    1.000
    Si3576   Si       0.72950    0.45485    0.58714    1.000
    N3577    N        0.65107    0.44301    0.53865    1.000
    Si3578   Si       0.62801    0.45095    0.50371    1.000
    Si3579   Si       0.49770    0.47922    0.69945    1.000
    N3580    N        0.57847    0.46161    0.62491    1.000
    N3581    N        0.49298    0.43603    0.71039    1.000
    Si3582   Si       0.58374    0.43069    0.73254    1.000
    Si3583   Si       0.53683    0.46607    0.63544    1.000
    N3584    N        0.58996    0.47388    0.72359    1.000
    N3585    N        0.52602    0.42412    0.64379    1.000
    Si3586   Si       0.61268    0.47778    0.64497    1.000
    N3587    N        0.68937    0.42730    0.70225    1.000
    Si3588   Si       0.64981    0.44515    0.70253    1.000
    Si3589   Si       0.71787    0.45690    0.69392    1.000
    N3590    N        0.62898    0.44188    0.66402    1.000
    N3591    N        0.70749    0.41897    0.58031    1.000
    N3592    N        0.71259    0.42207    0.51102    1.000
    N3593    N        0.55249    0.46611    0.83059    1.000
    Si3594   Si       0.54067    0.44024    0.79664    1.000
    Si3595   Si       0.58313    0.44963    0.85882    1.000
    N3596    N        0.57833    0.43117    0.77578    1.000
    N3597    N        0.49737    0.44404    0.78192    1.000
    Si3598   Si       0.61656    0.42516    0.79638    1.000
    N3599    N        0.61945    0.43698    0.84017    1.000
    Si3600   Si       0.65620    0.46098    0.83064    1.000
    N3601    N        0.69239    0.43696    0.83786    1.000
    N3602    N        0.63658    0.46356    0.78706    1.000
    Si3603   Si       0.72244    0.44197    0.87056    1.000
    N3604    N        0.56016    0.46222    0.94177    1.000
    Si3605   Si       0.58288    0.45947    0.97975    1.000
    Si3606   Si       0.54909    0.42319    0.92340    1.000
    N3607    N        0.60754    0.42375    0.97106    1.000
    N3608    N        0.67301    0.44023    0.95870    1.000
    Si3609   Si       0.71432    0.43917    0.94412    1.000
    N3610    N        0.70826    0.42012    0.90579    1.000
    N3611    N        0.54092    0.50991    0.03567    1.000
    N3612    N        0.60436    0.49573    0.06558    1.000
    Si3613   Si       0.51607    0.53324    0.06819    1.000
    Si3614   Si       0.59249    0.53037    0.08837    1.000
    Si3615   Si       0.56677    0.47887    0.05126    1.000
    N3616    N        0.67759    0.49926    0.05974    1.000
    Si3617   Si       0.69796    0.52119    0.08952    1.000
    Si3618   Si       0.68722    0.51966    0.02151    1.000
    N3619    N        0.72709    0.52113    0.00562    1.000
    N3620    N        0.71104    0.48972    0.11727    1.000
    Si3621   Si       0.51839    0.48895    0.16643    1.000
    Si3622   Si       0.58072    0.52559    0.16307    1.000
    N3623    N        0.51403    0.48906    0.21037    1.000
    N3624    N        0.56138    0.48838    0.15976    1.000
    N3625    N        0.60583    0.52044    0.20042    1.000
    N3626    N        0.49503    0.52238    0.15010    1.000
    N3627    N        0.60453    0.53508    0.12870    1.000
    Si3628   Si       0.61692    0.48417    0.22296    1.000
    N3629    N        0.73025    0.50923    0.22849    1.000
    N3630    N        0.69621    0.51881    0.17529    1.000
    Si3631   Si       0.68805    0.51680    0.21881    1.000
    N3632    N        0.65918    0.48500    0.22916    1.000
    Si3633   Si       0.72377    0.49028    0.15958    1.000
    N3634    N        0.52696    0.52012    0.28073    1.000
    N3635    N        0.57338    0.50231    0.32471    1.000
    Si3636   Si       0.56981    0.51089    0.28290    1.000
    Si3637   Si       0.55091    0.51761    0.35886    1.000
    N3638    N        0.51061    0.50523    0.34864    1.000
    Si3639   Si       0.49719    0.52837    0.31597    1.000
    N3640    N        0.59571    0.48236    0.26079    1.000
    Si3641   Si       0.50192    0.50549    0.24886    1.000
    Si3642   Si       0.61476    0.50056    0.33632    1.000
    Si3643   Si       0.68261    0.50149    0.31348    1.000
    N3644    N        0.70203    0.49196    0.35387    1.000
    N3645    N        0.64181    0.48341    0.30833    1.000
    Si3646   Si       0.72526    0.50913    0.46954    1.000
    Si3647   Si       0.52826    0.51968    0.42733    1.000
    N3648    N        0.55986    0.50545    0.40005    1.000
    N3649    N        0.52636    0.51378    0.46963    1.000
    Si3650   Si       0.59866    0.48313    0.40842    1.000
    N3651    N        0.64695    0.48616    0.48486    1.000
    Si3652   Si       0.70412    0.51484    0.39128    1.000
    N3653    N        0.69747    0.50804    0.43521    1.000
    Si3654   Si       0.65844    0.48723    0.44294    1.000
    N3655    N        0.63311    0.51180    0.41996    1.000
    N3656    N        0.70929    0.47704    0.29177    1.000
    N3657    N        0.56346    0.52893    0.52554    1.000
    Si3658   Si       0.56995    0.48714    0.52791    1.000
    Si3659   Si       0.71698    0.52326    0.66504    1.000
    Si3660   Si       0.69719    0.51275    0.55268    1.000
    N3661    N        0.65213    0.51778    0.54867    1.000
    N3662    N        0.70514    0.51331    0.50843    1.000
    Si3663   Si       0.66076    0.52078    0.50459    1.000
    Si3664   Si       0.62030    0.50530    0.57784    1.000
    N3665    N        0.70124    0.48650    0.58465    1.000
    N3666    N        0.64008    0.49101    0.61469    1.000
    Si3667   Si       0.68219    0.49646    0.62292    1.000
    N3668    N        0.59784    0.51311    0.66551    1.000
    N3669    N        0.49792    0.49920    0.73681    1.000
    Si3670   Si       0.56979    0.49941    0.69495    1.000
    N3671    N        0.53419    0.48282    0.67694    1.000
    N3672    N        0.69731    0.53580    0.62845    1.000
    Si3673   Si       0.68955    0.51358    0.72841    1.000
    N3674    N        0.69953    0.48257    0.66161    1.000
    N3675    N        0.72467    0.48715    0.72635    1.000
    N3676    N        0.65819    0.48432    0.72146    1.000
    N3677    N        0.55909    0.53698    0.71708    1.000
    Si3678   Si       0.55197    0.50964    0.82704    1.000
    N3679    N        0.54810    0.51536    0.78280    1.000
    Si3680   Si       0.51005    0.52802    0.76766    1.000
    N3681    N        0.51895    0.52966    0.84910    1.000
    N3682    N        0.69064    0.53076    0.91245    1.000
    N3683    N        0.61593    0.52480    0.75973    1.000
    N3684    N        0.65310    0.50090    0.84822    1.000
    N3685    N        0.68662    0.53228    0.76820    1.000
    Si3686   Si       0.61712    0.52111    0.86304    1.000
    Si3687   Si       0.68935    0.51530    0.86969    1.000
    Si3688   Si       0.62398    0.48369    0.75091    1.000
    Si3689   Si       0.72298    0.53608    0.79460    1.000
    N3690    N        0.59501    0.48589    0.87796    1.000
    Si3691   Si       0.52429    0.48752    0.93701    1.000
    Si3692   Si       0.58348    0.49477    0.91925    1.000
    N3693    N        0.54548    0.51546    0.91290    1.000
    N3694    N        0.51742    0.50327    0.97677    1.000
    N3695    N        0.59076    0.50440    0.98510    1.000
    Si3696   Si       0.55023    0.52456    0.99581    1.000
    Si3697   Si       0.62885    0.51889    0.97265    1.000
    N3698    N        0.71580    0.48413    0.88192    1.000
    N3699    N        0.62308    0.51647    0.92846    1.000
    N3700    N        0.73435    0.47927    0.94867    1.000
    N3701    N        0.66144    0.49924    0.99289    1.000
    Si3702   Si       0.72997    0.50928    0.91609    1.000
    N3703    N        0.70921    0.53911    0.83899    1.000
    Si3704   Si       0.53428    0.58318    0.09698    1.000
    N3705    N        0.55168    0.54456    0.08915    1.000
    N3706    N        0.60733    0.58843    0.01124    1.000
    N3707    N        0.49506    0.57128    0.07923    1.000
    N3708    N        0.61523    0.56867    0.07928    1.000
    N3709    N        0.67383    0.55298    0.10991    1.000
    N3710    N        0.72372    0.55077    0.07356    1.000
    N3711    N        0.67269    0.55767    0.03378    1.000
    Si3712   Si       0.68771    0.57574    0.07205    1.000
    Si3713   Si       0.65170    0.58210    0.00468    1.000
    Si3714   Si       0.63223    0.57027    0.12218    1.000
    N3715    N        0.59724    0.58436    0.22109    1.000
    N3716    N        0.55060    0.55436    0.17525    1.000
    Si3717   Si       0.50911    0.56080    0.16299    1.000
    Si3718   Si       0.55648    0.58410    0.20658    1.000
    N3719    N        0.52541    0.57230    0.23514    1.000
    N3720    N        0.51906    0.59227    0.13368    1.000
    N3721    N        0.64384    0.56706    0.16727    1.000
    Si3722   Si       0.68259    0.55373    0.15294    1.000
    Si3723   Si       0.62747    0.55742    0.20622    1.000
    N3724    N        0.70474    0.58897    0.15814    1.000
    N3725    N        0.66347    0.55066    0.23248    1.000
    Si3726   Si       0.53808    0.56737    0.27628    1.000
    N3727    N        0.55552    0.55944    0.35534    1.000
    N3728    N        0.50927    0.57131    0.31033    1.000
    Si3729   Si       0.59802    0.57304    0.35843    1.000
    N3730    N        0.58089    0.55353    0.27585    1.000
    Si3731   Si       0.52313    0.58716    0.35230    1.000
    Si3732   Si       0.59707    0.59108    0.26312    1.000
    Si3733   Si       0.66928    0.56830    0.27219    1.000
    Si3734   Si       0.66615    0.56242    0.34330    1.000
    N3735    N        0.62761    0.54202    0.34863    1.000
    N3736    N        0.67923    0.54432    0.30562    1.000
    N3737    N        0.60486    0.57177    0.40113    1.000
    N3738    N        0.57792    0.56537    0.47149    1.000
    N3739    N        0.53233    0.56401    0.42190    1.000
    Si3740   Si       0.57104    0.58125    0.42920    1.000
    Si3741   Si       0.49679    0.58662    0.41370    1.000
    Si3742   Si       0.54495    0.54655    0.49128    1.000
    N3743    N        0.63578    0.59424    0.28185    1.000
    Si3744   Si       0.70202    0.58760    0.40181    1.000
    N3745    N        0.73402    0.58819    0.43289    1.000
    N3746    N        0.66646    0.58606    0.43071    1.000
    N3747    N        0.68051    0.55298    0.38316    1.000
    Si3748   Si       0.64290    0.55405    0.40966    1.000
    N3749    N        0.53236    0.57109    0.57610    1.000
    Si3750   Si       0.57137    0.55529    0.56044    1.000
    N3751    N        0.59007    0.58761    0.53926    1.000
    Si3752   Si       0.54124    0.58825    0.61532    1.000
    Si3753   Si       0.50943    0.59044    0.54439    1.000
    N3754    N        0.51030    0.57355    0.50408    1.000
    N3755    N        0.71856    0.54875    0.56342    1.000
    Si3756   Si       0.71293    0.56629    0.60269    1.000
    Si3757   Si       0.73668    0.57613    0.53589    1.000
    N3758    N        0.71511    0.58314    0.50033    1.000
    N3759    N        0.64861    0.56006    0.49505    1.000
    N3760    N        0.69748    0.54269    0.69796    1.000
    N3761    N        0.55768    0.56405    0.64977    1.000
    Si3762   Si       0.59683    0.54725    0.63762    1.000
    N3763    N        0.49842    0.56560    0.69146    1.000
    Si3764   Si       0.54226    0.56778    0.69060    1.000
    N3765    N        0.62930    0.57576    0.64011    1.000
    N3766    N        0.65647    0.58403    0.73426    1.000
    Si3767   Si       0.68999    0.58438    0.70344    1.000
    N3768    N        0.72220    0.59917    0.72789    1.000
    N3769    N        0.59326    0.53700    0.59362    1.000
    Si3770   Si       0.60852    0.57935    0.49812    1.000
    N3771    N        0.56719    0.57672    0.77787    1.000
    Si3772   Si       0.59065    0.57784    0.81424    1.000
    N3773    N        0.50429    0.56856    0.75725    1.000
    Si3774   Si       0.57497    0.53803    0.75835    1.000
    N3775    N        0.72311    0.58403    0.79550    1.000
    Si3776   Si       0.64877    0.55321    0.76694    1.000
    N3777    N        0.62978    0.58354    0.79367    1.000
    Si3778   Si       0.72138    0.58069    0.83905    1.000
    N3779    N        0.63724    0.55892    0.88133    1.000
    N3780    N        0.54912    0.56712    0.98704    1.000
    N3781    N        0.53927    0.58257    0.89304    1.000
    Si3782   Si       0.52189    0.54406    0.89128    1.000
    Si3783   Si       0.50881    0.58112    0.98878    1.000
    N3784    N        0.64963    0.55744    0.96885    1.000
    Si3785   Si       0.65362    0.55154    0.92372    1.000
    N3786    N        0.67349    0.59624    0.92150    1.000
    N3787    N        0.58781    0.53879    0.83525    1.000
    N3788    N        0.55953    0.61174    0.07657    1.000
    N3789    N        0.56556    0.63888    0.01221    1.000
    N3790    N        0.50263    0.61128    0.02127    1.000
    Si3791   Si       0.52350    0.64845    0.02140    1.000
    Si3792   Si       0.59752    0.59865    0.05237    1.000
    N3793    N        0.66752    0.62907    0.20162    1.000
    N3794    N        0.62068    0.63563    0.05456    1.000
    Si3795   Si       0.70135    0.63570    0.03077    1.000
    N3796    N        0.68562    0.61761    0.06787    1.000
    Si3797   Si       0.65015    0.63512    0.08593    1.000
    N3798    N        0.64637    0.61261    0.12305    1.000
    Si3799   Si       0.52776    0.62910    0.15430    1.000
    N3800    N        0.54827    0.62501    0.19246    1.000
    N3801    N        0.59876    0.64806    0.24285    1.000
    N3802    N        0.69839    0.65459    0.14054    1.000
    Si3803   Si       0.70117    0.62514    0.23004    1.000
    Si3804   Si       0.67357    0.62092    0.15770    1.000
    N3805    N        0.67816    0.61556    0.99865    1.000
    N3806    N        0.60388    0.61299    0.34068    1.000
    N3807    N        0.55645    0.60815    0.27958    1.000
    Si3808   Si       0.57486    0.64412    0.34541    1.000
    N3809    N        0.49989    0.63845    0.30837    1.000
    Si3810   Si       0.53744    0.64750    0.28640    1.000
    N3811    N        0.54190    0.62341    0.36588    1.000
    Si3812   Si       0.63844    0.62159    0.31598    1.000
    Si3813   Si       0.70423    0.62946    0.35403    1.000
    N3814    N        0.67046    0.60473    0.34066    1.000
    N3815    N        0.70337    0.59438    0.26200    1.000
    N3816    N        0.73025    0.59547    0.36722    1.000
    Si3817   Si       0.67349    0.59756    0.49692    1.000
    N3818    N        0.50012    0.63150    0.42204    1.000
    Si3819   Si       0.54201    0.64539    0.40599    1.000
    Si3820   Si       0.60106    0.63941    0.45476    1.000
    N3821    N        0.56952    0.62305    0.43123    1.000
    N3822    N        0.69666    0.63690    0.39910    1.000
    N3823    N        0.69047    0.63205    0.47262    1.000
    Si3824   Si       0.72995    0.61045    0.46907    1.000
    Si3825   Si       0.66937    0.63007    0.43431    1.000
    N3826    N        0.62367    0.61788    0.48432    1.000
    N3827    N        0.63232    0.64975    0.42562    1.000
    N3828    N        0.52874    0.62979    0.54549    1.000
    N3829    N        0.57292    0.61313    0.60022    1.000
    Si3830   Si       0.57072    0.62291    0.55872    1.000
    Si3831   Si       0.63318    0.64058    0.52111    1.000
    N3832    N        0.66452    0.61485    0.53608    1.000
    Si3833   Si       0.69164    0.62533    0.56889    1.000
    N3834    N        0.73209    0.61192    0.56120    1.000
    N3835    N        0.68425    0.59908    0.60325    1.000
    N3836    N        0.63723    0.64378    0.62731    1.000
    Si3837   Si       0.59412    0.64092    0.62614    1.000
    N3838    N        0.50681    0.60763    0.63449    1.000
    Si3839   Si       0.57940    0.63712    0.70714    1.000
    N3840    N        0.58170    0.64581    0.66584    1.000
    N3841    N        0.55366    0.60198    0.71536    1.000
    N3842    N        0.61135    0.64035    0.73842    1.000
    Si3843   Si       0.49047    0.64693    0.63575    1.000
    Si3844   Si       0.70005    0.65427    0.67640    1.000
    Si3845   Si       0.65934    0.60717    0.63592    1.000
    N3846    N        0.68407    0.61431    0.67001    1.000
    N3847    N        0.52415    0.64084    0.76976    1.000
    N3848    N        0.50314    0.61670    0.83201    1.000
    N3849    N        0.57577    0.60900    0.84101    1.000
    Si3850   Si       0.53693    0.61278    0.86152    1.000
    Si3851   Si       0.59982    0.64361    0.85558    1.000
    Si3852   Si       0.50797    0.65299    0.80904    1.000
    Si3853   Si       0.53540    0.59962    0.75544    1.000
    Si3854   Si       0.63775    0.61308    0.75903    1.000
    Si3855   Si       0.71175    0.61553    0.76737    1.000
    N3856    N        0.67330    0.63356    0.77612    1.000
    N3857    N        0.68975    0.60812    0.85731    1.000
    Si3858   Si       0.70218    0.64936    0.85366    1.000
    N3859    N        0.53431    0.64415    0.89343    1.000
    N3860    N        0.57430    0.61976    0.94605    1.000
    Si3861   Si       0.53712    0.61262    0.92587    1.000
    Si3862   Si       0.57485    0.60389    0.98760    1.000
    Si3863   Si       0.60772    0.64306    0.92764    1.000
    N3864    N        0.50127    0.59752    0.94828    1.000
    N3865    N        0.62378    0.63056    0.88819    1.000
    N3866    N        0.71998    0.63515    0.95497    1.000
    N3867    N        0.64129    0.64139    0.95632    1.000
    Si3868   Si       0.65470    0.59922    0.88221    1.000
    Si3869   Si       0.67877    0.62172    0.95605    1.000
    N3870    N        0.73911    0.64950    0.76550    1.000
    N3871    N        0.58257    0.68552    0.06916    1.000
    N3872    N        0.52219    0.67084    0.06269    1.000
    Si3873   Si       0.59586    0.66381    0.03367    1.000
    Si3874   Si       0.54723    0.70916    0.05845    1.000
    N3875    N        0.61377    0.69277    0.00481    1.000
    Si3876   Si       0.55407    0.65437    0.08731    1.000
    Si3877   Si       0.61289    0.70403    0.09766    1.000
    N3878    N        0.49052    0.70306    0.19207    1.000
    N3879    N        0.64847    0.67827    0.10165    1.000
    N3880    N        0.70717    0.67927    0.03233    1.000
    Si3881   Si       0.72764    0.69118    0.07015    1.000
    N3882    N        0.70629    0.71333    0.10179    1.000
    Si3883   Si       0.69402    0.71509    0.01234    1.000
    Si3884   Si       0.49526    0.69047    0.23221    1.000
    N3885    N        0.55782    0.69022    0.19427    1.000
    Si3886   Si       0.57729    0.67405    0.15853    1.000
    N3887    N        0.55063    0.65561    0.13007    1.000
    Si3888   Si       0.56149    0.65621    0.22076    1.000
    N3889    N        0.59451    0.70869    0.13710    1.000
    Si3890   Si       0.63054    0.65200    0.21323    1.000
    N3891    N        0.61168    0.65643    0.17530    1.000
    Si3892   Si       0.68965    0.70137    0.23475    1.000
    N3893    N        0.70601    0.70118    0.19383    1.000
    N3894    N        0.64722    0.68812    0.23406    1.000
    Si3895   Si       0.67878    0.69123    0.13039    1.000
    N3896    N        0.56650    0.66908    0.31052    1.000
    Si3897   Si       0.57651    0.71279    0.30503    1.000
    N3898    N        0.52827    0.66686    0.24758    1.000
    Si3899   Si       0.62042    0.67606    0.27016    1.000
    N3900    N        0.70764    0.66250    0.32429    1.000
    N3901    N        0.64184    0.66368    0.30768    1.000
    Si3902   Si       0.67127    0.68753    0.32812    1.000
    Si3903   Si       0.73245    0.66312    0.28778    1.000
    N3904    N        0.70695    0.66156    0.25157    1.000
    N3905    N        0.65971    0.68614    0.37003    1.000
    N3906    N        0.49840    0.68515    0.36958    1.000
    N3907    N        0.58640    0.67235    0.37675    1.000
    N3908    N        0.51516    0.66980    0.48382    1.000
    Si3909   Si       0.54887    0.69303    0.46487    1.000
    N3910    N        0.58811    0.67786    0.47143    1.000
    N3911    N        0.53791    0.68770    0.42195    1.000
    Si3912   Si       0.51582    0.71513    0.39661    1.000
    Si3913   Si       0.61593    0.70115    0.49511    1.000
    Si3914   Si       0.68578    0.67516    0.48346    1.000
    Si3915   Si       0.69224    0.68247    0.40001    1.000
    N3916    N        0.68297    0.69068    0.44255    1.000
    Si3917   Si       0.62554    0.68016    0.39626    1.000
    N3918    N        0.58187    0.67578    0.60198    1.000
    N3919    N        0.54542    0.69702    0.54720    1.000
    Si3920   Si       0.58891    0.69379    0.56203    1.000
    Si3921   Si       0.51684    0.66898    0.52911    1.000
    Si3922   Si       0.55092    0.70463    0.61679    1.000
    N3923    N        0.59893    0.65323    0.54437    1.000
    Si3924   Si       0.66718    0.69677    0.55139    1.000
    Si3925   Si       0.71958    0.67907    0.60634    1.000
    N3926    N        0.65175    0.67957    0.51188    1.000
    N3927    N        0.68682    0.66677    0.57780    1.000
    Si3928   Si       0.65200    0.68251    0.61650    1.000
    N3929    N        0.63770    0.70732    0.58045    1.000
    N3930    N        0.72204    0.69035    0.50324    1.000
    N3931    N        0.54975    0.67033    0.71599    1.000
    N3932    N        0.52494    0.67390    0.63586    1.000
    Si3933   Si       0.54210    0.68627    0.67511    1.000
    N3934    N        0.61007    0.70728    0.71237    1.000
    Si3935   Si       0.60958    0.68231    0.74781    1.000
    N3936    N        0.67792    0.68232    0.70056    1.000
    N3937    N        0.63872    0.71167    0.64750    1.000
    Si3938   Si       0.67356    0.70831    0.73434    1.000
    N3939    N        0.69253    0.68179    0.64074    1.000
    Si3940   Si       0.58321    0.69196    0.81737    1.000
    N3941    N        0.57709    0.69127    0.77447    1.000
    N3942    N        0.54179    0.67226    0.82880    1.000
    Si3943   Si       0.53936    0.67884    0.75673    1.000
    N3944    N        0.51647    0.71547    0.75921    1.000
    Si3945   Si       0.54096    0.68203    0.87322    1.000
    N3946    N        0.58512    0.68338    0.87079    1.000
    N3947    N        0.61674    0.66378    0.81949    1.000
    Si3948   Si       0.65420    0.66720    0.80011    1.000
    N3949    N        0.68091    0.67793    0.83180    1.000
    N3950    N        0.64716    0.69252    0.76476    1.000
    Si3951   Si       0.68397    0.70703    0.86660    1.000
    N3952    N        0.60670    0.68791    0.93404    1.000
    Si3953   Si       0.51623    0.71397    0.98901    1.000
    Si3954   Si       0.72858    0.66496    0.92414    1.000
    N3955    N        0.67503    0.70473    0.97391    1.000
    Si3956   Si       0.63578    0.68390    0.96718    1.000
    N3957    N        0.70118    0.67461    0.89096    1.000
    N3958    N        0.73813    0.70870    0.93337    1.000
    N3959    N        0.49707    0.67448    0.99713    1.000
    N3960    N        0.54064    0.74257    0.08308    1.000
    N3961    N        0.59437    0.75266    0.04294    1.000
    Si3962   Si       0.58877    0.72848    0.00790    1.000
    Si3963   Si       0.49900    0.74048    0.09552    1.000
    Si3964   Si       0.56101    0.77471    0.06351    1.000
    N3965    N        0.68140    0.74034    0.04423    1.000
    N3966    N        0.63570    0.74257    0.09531    1.000
    Si3967   Si       0.67911    0.74770    0.08905    1.000
    N3968    N        0.49896    0.71897    0.13354    1.000
    Si3969   Si       0.55911    0.73341    0.20415    1.000
    N3970    N        0.60360    0.73407    0.20106    1.000
    N3971    N        0.53970    0.75633    0.17173    1.000
    N3972    N        0.54264    0.75780    0.23590    1.000
    Si3973   Si       0.50050    0.74107    0.17129    1.000
    Si3974   Si       0.61960    0.73613    0.15972    1.000
    Si3975   Si       0.69092    0.74158    0.18143    1.000
    Si3976   Si       0.62941    0.73479    0.23511    1.000
    N3977    N        0.66094    0.72391    0.15364    1.000
    N3978    N        0.73388    0.74503    0.15748    1.000
    N3979    N        0.67080    0.74712    0.21961    1.000
    N3980    N        0.54944    0.71311    0.01504    1.000
    N3981    N        0.54067    0.73600    0.30387    1.000
    Si3982   Si       0.51783    0.75143    0.27013    1.000
    Si3983   Si       0.53184    0.75729    0.34144    1.000
    N3984    N        0.60169    0.72599    0.33795    1.000
    N3985    N        0.60264    0.71568    0.26963    1.000
    Si3986   Si       0.70084    0.73143    0.43529    1.000
    Si3987   Si       0.70680    0.74279    0.30329    1.000
    N3988    N        0.66889    0.72697    0.31574    1.000
    Si3989   Si       0.63466    0.75365    0.32860    1.000
    N3990    N        0.71307    0.72218    0.26521    1.000
    N3991    N        0.73662    0.73719    0.33582    1.000
    N3992    N        0.54702    0.73601    0.37490    1.000
    N3993    N        0.55215    0.73386    0.47639    1.000
    N3994    N        0.61379    0.72012    0.40832    1.000
    Si3995   Si       0.58288    0.71612    0.37593    1.000
    N3996    N        0.71428    0.71803    0.39539    1.000
    N3997    N        0.72404    0.75550    0.46026    1.000
    N3998    N        0.62820    0.73978    0.47807    1.000
    Si3999   Si       0.62656    0.74799    0.43696    1.000
    N4000    N        0.66747    0.75535    0.42818    1.000
    Si4001   Si       0.73605    0.74948    0.37779    1.000
    Si4002   Si       0.56339    0.77375    0.46248    1.000
    N4003    N        0.57940    0.73552    0.59137    1.000
    Si4004   Si       0.55100    0.73339    0.52174    1.000
    N4005    N        0.51268    0.75440    0.52240    1.000
    N4006    N        0.59564    0.72400    0.52720    1.000
    Si4007   Si       0.55113    0.76697    0.60088    1.000
    N4008    N        0.52052    0.73777    0.61611    1.000
    Si4009   Si       0.61140    0.76256    0.51157    1.000
    Si4010   Si       0.62142    0.74905    0.58270    1.000
    N4011    N        0.68551    0.73323    0.53919    1.000
    N4012    N        0.63273    0.77325    0.54847    1.000
    Si4013   Si       0.72758    0.71666    0.53835    1.000
    Si4014   Si       0.60698    0.72569    0.67363    1.000
    N4015    N        0.55203    0.76318    0.70657    1.000
    Si4016   Si       0.54154    0.75783    0.66445    1.000
    Si4017   Si       0.51626    0.74086    0.72305    1.000
    N4018    N        0.56760    0.71746    0.65819    1.000
    N4019    N        0.50930    0.71775    0.68740    1.000
    N4020    N        0.73813    0.74918    0.69402    1.000
    N4021    N        0.67184    0.74401    0.70650    1.000
    N4022    N        0.61591    0.76894    0.67818    1.000
    N4023    N        0.69739    0.74615    0.64072    1.000
    Si4024   Si       0.71242    0.75816    0.72940    1.000
    Si4025   Si       0.74010    0.74604    0.65080    1.000
    Si4026   Si       0.67910    0.71697    0.66838    1.000
    N4027    N        0.51977    0.74644    0.81951    1.000
    N4028    N        0.58858    0.73504    0.82422    1.000
    Si4029   Si       0.50025    0.75303    0.85706    1.000
    Si4030   Si       0.55828    0.76160    0.80448    1.000
    Si4031   Si       0.49228    0.72278    0.79616    1.000
    Si4032   Si       0.69862    0.76412    0.82771    1.000
    Si4033   Si       0.62848    0.74848    0.84264    1.000
    N4034    N        0.65911    0.75433    0.81280    1.000
    N4035    N        0.70080    0.74928    0.86857    1.000
    N4036    N        0.70892    0.72269    0.75464    1.000
    N4037    N        0.73471    0.74920    0.81124    1.000
    N4038    N        0.59765    0.75716    0.97643    1.000
    Si4039   Si       0.56653    0.75636    0.94595    1.000
    N4040    N        0.58964    0.75151    0.90648    1.000
    N4041    N        0.53454    0.72519    0.95040    1.000
    Si4042   Si       0.50391    0.72073    0.92008    1.000
    N4043    N        0.51722    0.71913    0.87891    1.000
    Si4044   Si       0.60689    0.71162    0.89627    1.000
    N4045    N        0.64286    0.71966    0.87181    1.000
    N4046    N        0.72344    0.74339    0.99203    1.000
    N4047    N        0.69783    0.76614    0.93400    1.000
    Si4048   Si       0.70747    0.72943    0.95501    1.000
    Si4049   Si       0.72054    0.77550    0.89756    1.000
    N4050    N        0.59173    0.80361    0.07983    1.000
    Si4051   Si       0.50514    0.81591    0.03359    1.000
    N4052    N        0.53604    0.78645    0.03056    1.000
    Si4053   Si       0.50153    0.81246    0.11221    1.000
    N4054    N        0.59547    0.81976    0.00461    1.000
    Si4055   Si       0.71717    0.82179    0.19985    1.000
    N4056    N        0.72089    0.79492    0.03580    1.000
    N4057    N        0.65570    0.79850    0.05824    1.000
    Si4058   Si       0.72884    0.80970    0.07560    1.000
    Si4059   Si       0.68027    0.78126    0.02688    1.000
    N4060    N        0.71133    0.77763    0.10159    1.000
    Si4061   Si       0.62200    0.77517    0.06998    1.000
    N4062    N        0.54171    0.80666    0.12377    1.000
    N4063    N        0.50283    0.81784    0.22147    1.000
    Si4064   Si       0.54335    0.79968    0.22467    1.000
    N4065    N        0.56734    0.81160    0.19044    1.000
    Si4066   Si       0.56473    0.78795    0.15581    1.000
    N4067    N        0.61110    0.77745    0.15074    1.000
    Si4068   Si       0.70015    0.80073    0.13831    1.000
    N4069    N        0.69464    0.81719    0.23832    1.000
    N4070    N        0.66170    0.81769    0.12384    1.000
    N4071    N        0.68705    0.78775    0.17777    1.000
    Si4072   Si       0.66341    0.79079    0.21819    1.000
    Si4073   Si       0.62989    0.81548    0.15435    1.000
    N4074    N        0.63696    0.82676    0.19791    1.000
    N4075    N        0.62724    0.77953    0.24511    1.000
    N4076    N        0.53967    0.79789    0.33973    1.000
    Si4077   Si       0.50739    0.81630    0.31679    1.000
    Si4078   Si       0.57928    0.81270    0.33792    1.000
    N4079    N        0.49812    0.78601    0.28573    1.000
    N4080    N        0.57364    0.82303    0.25180    1.000
    Si4081   Si       0.60829    0.80316    0.27508    1.000
    N4082    N        0.60991    0.78812    0.31606    1.000
    N4083    N        0.70477    0.78462    0.29540    1.000
    Si4084   Si       0.72924    0.80085    0.26568    1.000
    Si4085   Si       0.63641    0.81541    0.36299    1.000
    N4086    N        0.65571    0.77444    0.36054    1.000
    N4087    N        0.70841    0.82707    0.44564    1.000
    N4088    N        0.59567    0.81730    0.37745    1.000
    N4089    N        0.52505    0.79634    0.45687    1.000
    N4090    N        0.59716    0.78196    0.43721    1.000
    Si4091   Si       0.61005    0.81930    0.41879    1.000
    Si4092   Si       0.50526    0.82761    0.43265    1.000
    Si4093   Si       0.74160    0.79605    0.44049    1.000
    N4094    N        0.72061    0.78427    0.39800    1.000
    Si4095   Si       0.67857    0.78347    0.39641    1.000
    N4096    N        0.65311    0.81936    0.40435    1.000
    Si4097   Si       0.56557    0.81490    0.53271    1.000
    N4098    N        0.55913    0.79609    0.57116    1.000
    N4099    N        0.52571    0.82498    0.51827    1.000
    N4100    N        0.57827    0.78777    0.50174    1.000
    Si4101   Si       0.50900    0.78764    0.49659    1.000
    N4102    N        0.69636    0.78869    0.57798    1.000
    N4103    N        0.69305    0.79712    0.50832    1.000
    Si4104   Si       0.71662    0.82439    0.59068    1.000
    N4105    N        0.63507    0.77490    0.61551    1.000
    Si4106   Si       0.68063    0.77887    0.61707    1.000
    Si4107   Si       0.67719    0.77513    0.54180    1.000
    Si4108   Si       0.49800    0.82293    0.66879    1.000
    Si4109   Si       0.57973    0.78773    0.73153    1.000
    N4110    N        0.56708    0.78304    0.63805    1.000
    N4111    N        0.50353    0.78160    0.65877    1.000
    Si4112   Si       0.60925    0.79524    0.64448    1.000
    N4113    N        0.58253    0.82845    0.71293    1.000
    N4114    N        0.50676    0.83267    0.71128    1.000
    Si4115   Si       0.64490    0.77817    0.70957    1.000
    N4116    N        0.62033    0.77629    0.74568    1.000
    Si4117   Si       0.68866    0.82671    0.73225    1.000
    N4118    N        0.65457    0.82295    0.70696    1.000
    N4119    N        0.69874    0.81535    0.63317    1.000
    Si4120   Si       0.48762    0.81009    0.74250    1.000
    Si4121   Si       0.72869    0.77549    0.49986    1.000
    N4122    N        0.56569    0.80007    0.82469    1.000
    Si4123   Si       0.54379    0.81610    0.86095    1.000
    N4124    N        0.49937    0.82041    0.78448    1.000
    Si4125   Si       0.54106    0.82385    0.79159    1.000
    Si4126   Si       0.60524    0.81491    0.82785    1.000
    N4127    N        0.55490    0.78787    0.76686    1.000
    N4128    N        0.62225    0.78964    0.86104    1.000
    N4129    N        0.70131    0.80827    0.82265    1.000
    N4130    N        0.63680    0.81572    0.79761    1.000
    Si4131   Si       0.73678    0.82268    0.84529    1.000
    Si4132   Si       0.65043    0.77899    0.77751    1.000
    N4133    N        0.68581    0.78633    0.75323    1.000
    N4134    N        0.50870    0.79292    0.87292    1.000
    N4135    N        0.55081    0.79757    0.95711    1.000
    Si4136   Si       0.60425    0.79365    0.90041    1.000
    N4137    N        0.56918    0.82203    0.89536    1.000
    Si4138   Si       0.68988    0.80322    0.95505    1.000
    Si4139   Si       0.62149    0.79600    0.97783    1.000
    N4140    N        0.62527    0.81044    0.93733    1.000
    N4141    N        0.72683    0.81416    0.97405    1.000
    N4142    N        0.66343    0.78953    0.98778    1.000
    N4143    N        0.72106    0.81851    0.88525    1.000
    Si4144   Si       0.55553    0.80868    0.99850    1.000
    N4145    N        0.56138    0.86776    0.08955    1.000
    N4146    N        0.58222    0.88645    0.01451    1.000
    N4147    N        0.52782    0.84298    0.00468    1.000
    Si4148   Si       0.61350    0.85477    0.02259    1.000
    N4149    N        0.49763    0.83297    0.07367    1.000
    Si4150   Si       0.57446    0.83117    0.10703    1.000
    N4151    N        0.63860    0.86378    0.05923    1.000
    N4152    N        0.70230    0.84542    0.08225    1.000
    Si4153   Si       0.71170    0.88740    0.08567    1.000
    Si4154   Si       0.66042    0.83356    0.08272    1.000
    N4155    N        0.60146    0.84441    0.13975    1.000
    Si4156   Si       0.60008    0.88265    0.16139    1.000
    N4157    N        0.59111    0.87730    0.20314    1.000
    Si4158   Si       0.59648    0.83637    0.21311    1.000
    N4159    N        0.48802    0.88447    0.24228    1.000
    Si4160   Si       0.65750    0.86517    0.19557    1.000
    N4161    N        0.65948    0.88047    0.23640    1.000
    N4162    N        0.70062    0.86024    0.18791    1.000
    N4163    N        0.71960    0.88540    0.99265    1.000
    N4164    N        0.58148    0.85014    0.31433    1.000
    Si4165   Si       0.55831    0.85419    0.27923    1.000
    N4166    N        0.51648    0.84691    0.28853    1.000
    Si4167   Si       0.48983    0.84137    0.25410    1.000
    N4168    N        0.63359    0.83769    0.27710    1.000
    Si4169   Si       0.62394    0.86508    0.30885    1.000
    Si4170   Si       0.68787    0.86495    0.34110    1.000
    N4171    N        0.69404    0.86015    0.29869    1.000
    N4172    N        0.64686    0.85023    0.34158    1.000
    Si4173   Si       0.67181    0.84739    0.26273    1.000
    Si4174   Si       0.73379    0.87376    0.29376    1.000
    N4175    N        0.53442    0.85829    0.41686    1.000
    N4176    N        0.60590    0.86318    0.42910    1.000
    Si4177   Si       0.56923    0.88345    0.41609    1.000
    Si4178   Si       0.51364    0.88961    0.39365    1.000
    N4179    N        0.70883    0.84551    0.37421    1.000
    N4180    N        0.67521    0.88431    0.42635    1.000
    Si4181   Si       0.69266    0.83479    0.48441    1.000
    Si4182   Si       0.68593    0.84562    0.41264    1.000
    Si4183   Si       0.63951    0.88401    0.45127    1.000
    N4184    N        0.65074    0.84915    0.47976    1.000
    N4185    N        0.59165    0.84910    0.53405    1.000
    N4186    N        0.56953    0.86367    0.59793    1.000
    Si4187   Si       0.50743    0.85250    0.54707    1.000
    Si4188   Si       0.57346    0.88192    0.55937    1.000
    Si4189   Si       0.52979    0.85621    0.61485    1.000
    N4190    N        0.49885    0.83825    0.58653    1.000
    N4191    N        0.53290    0.88753    0.54459    1.000
    N4192    N        0.72285    0.83145    0.70672    1.000
    N4193    N        0.71666    0.86613    0.50397    1.000
    N4194    N        0.70655    0.86612    0.57905    1.000
    Si4195   Si       0.62605    0.86407    0.51214    1.000
    Si4196   Si       0.69546    0.88374    0.53917    1.000
    N4197    N        0.65213    0.88459    0.54110    1.000
    N4198    N        0.62851    0.88977    0.70208    1.000
    Si4199   Si       0.60220    0.87135    0.62717    1.000
    Si4200   Si       0.54627    0.85050    0.70028    1.000
    N4201    N        0.53286    0.84556    0.65729    1.000
    N4202    N        0.55618    0.88917    0.71263    1.000
    N4203    N        0.61487    0.83741    0.65067    1.000
    Si4204   Si       0.62007    0.84707    0.69439    1.000
    Si4205   Si       0.72324    0.83388    0.66434    1.000
    N4206    N        0.72882    0.87591    0.64959    1.000
    N4207    N        0.59864    0.85933    0.82836    1.000
    N4208    N        0.54841    0.86520    0.77793    1.000
    N4209    N        0.52869    0.85145    0.83721    1.000
    Si4210   Si       0.55984    0.87794    0.81989    1.000
    Si4211   Si       0.49155    0.87311    0.84157    1.000
    N4212    N        0.68872    0.85471    0.76716    1.000
    N4213    N        0.66332    0.87304    0.83003    1.000
    N4214    N        0.73147    0.86398    0.83129    1.000
    Si4215   Si       0.67444    0.83815    0.80571    1.000
    Si4216   Si       0.70115    0.88926    0.84719    1.000
    N4217    N        0.55871    0.87367    0.94984    1.000
    N4218    N        0.50364    0.84084    0.91999    1.000
    Si4219   Si       0.54493    0.88032    0.99232    1.000
    Si4220   Si       0.54630    0.83409    0.93247    1.000
    N4221    N        0.62571    0.88463    0.92261    1.000
    N4222    N        0.68105    0.84307    0.93788    1.000
    N4223    N        0.63663    0.87052    0.98654    1.000
    Si4224   Si       0.64009    0.85147    0.94660    1.000
    N4225    N        0.68867    0.88643    0.88904    1.000
    Si4226   Si       0.71068    0.85660    0.91003    1.000
    Si4227   Si       0.59116    0.94105    0.10922    1.000
    N4228    N        0.55227    0.94052    0.09098    1.000
    Si4229   Si       0.50209    0.92641    0.03329    1.000
    Si4230   Si       0.53560    0.90040    0.09659    1.000
    N4231    N        0.50608    0.89807    0.06583    1.000
    N4232    N        0.71530    0.92754    0.19172    1.000
    N4233    N        0.62630    0.91643    0.10225    1.000
    N4234    N        0.63583    0.92788    0.02639    1.000
    N4235    N        0.68534    0.91987    0.07326    1.000
    Si4236   Si       0.64343    0.90739    0.06386    1.000
    N4237    N        0.72523    0.94880    0.02714    1.000
    N4238    N        0.51462    0.89678    0.13680    1.000
    N4239    N        0.57824    0.91739    0.14665    1.000
    Si4240   Si       0.57519    0.91256    0.22417    1.000
    Si4241   Si       0.53774    0.92718    0.15801    1.000
    N4242    N        0.54003    0.92693    0.20159    1.000
    N4243    N        0.60999    0.93526    0.23988    1.000
    Si4244   Si       0.66108    0.91565    0.13136    1.000
    N4245    N        0.70036    0.89523    0.12788    1.000
    N4246    N        0.64399    0.89122    0.16519    1.000
    Si4247   Si       0.71943    0.89199    0.16714    1.000
    Si4248   Si       0.71693    0.92462    0.23700    1.000
    N4249    N        0.50345    0.91431    0.30578    1.000
    Si4250   Si       0.51605    0.90577    0.26524    1.000
    Si4251   Si       0.56789    0.94292    0.36219    1.000
    N4252    N        0.55665    0.89534    0.26012    1.000
    N4253    N        0.61529    0.93774    0.36612    1.000
    N4254    N        0.68220    0.93846    0.25953    1.000
    N4255    N        0.63145    0.90762    0.30134    1.000
    Si4256   Si       0.64761    0.93009    0.33541    1.000
    N4257    N        0.67993    0.90670    0.35253    1.000
    Si4258   Si       0.64433    0.91765    0.25879    1.000
    Si4259   Si       0.72250    0.91716    0.35852    1.000
    N4260    N        0.55073    0.90670    0.37859    1.000
    N4261    N        0.50296    0.91697    0.48366    1.000
    Si4262   Si       0.52195    0.93007    0.44788    1.000
    N4263    N        0.56111    0.91538    0.44478    1.000
    Si4264   Si       0.59717    0.93155    0.46332    1.000
    Si4265   Si       0.69423    0.92451    0.42475    1.000
    N4266    N        0.72986    0.91371    0.40244    1.000
    N4267    N        0.69811    0.94164    0.46452    1.000
    N4268    N        0.61336    0.89949    0.48683    1.000
    N4269    N        0.63041    0.92596    0.43399    1.000
    N4270    N        0.51098    0.94973    0.25595    1.000
    N4271    N        0.59394    0.92009    0.56017    1.000
    Si4272   Si       0.51560    0.92217    0.52520    1.000
    N4273    N        0.70693    0.92483    0.53808    1.000
    Si4274   Si       0.63576    0.91371    0.57111    1.000
    N4275    N        0.70827    0.92711    0.60726    1.000
    N4276    N        0.63364    0.89470    0.61092    1.000
    Si4277   Si       0.72363    0.94413    0.50238    1.000
    Si4278   Si       0.66102    0.91816    0.70605    1.000
    N4279    N        0.58849    0.90535    0.65232    1.000
    Si4280   Si       0.50277    0.92803    0.64493    1.000
    Si4281   Si       0.58972    0.90859    0.69563    1.000
    N4282    N        0.49530    0.90353    0.74040    1.000
    Si4283   Si       0.56928    0.94095    0.63312    1.000
    Si4284   Si       0.63484    0.92596    0.64171    1.000
    N4285    N        0.70004    0.90014    0.71286    1.000
    N4286    N        0.66764    0.93490    0.66460    1.000
    Si4287   Si       0.73444    0.89982    0.68623    1.000
    N4288    N        0.73742    0.94121    0.67235    1.000
    N4289    N        0.50734    0.89375    0.62138    1.000
    Si4290   Si       0.72820    0.89033    0.60668    1.000
    N4291    N        0.57134    0.91788    0.83097    1.000
    N4292    N        0.55123    0.93458    0.77049    1.000
    N4293    N        0.50676    0.90829    0.85914    1.000
    Si4294   Si       0.58450    0.94256    0.86716    1.000
    Si4295   Si       0.58625    0.94642    0.79701    1.000
    Si4296   Si       0.53831    0.89788    0.75083    1.000
    N4297    N        0.49280    0.94304    0.80132    1.000
    N4298    N        0.67456    0.94718    0.90601    1.000
    N4299    N        0.62491    0.92412    0.79502    1.000
    N4300    N        0.62390    0.92042    0.86474    1.000
    Si4301   Si       0.72484    0.93704    0.80201    1.000
    N4302    N        0.68896    0.92745    0.78132    1.000
    N4303    N        0.71317    0.93030    0.84221    1.000
    Si4304   Si       0.62441    0.89559    0.83132    1.000
    Si4305   Si       0.70375    0.89483    0.75647    1.000
    Si4306   Si       0.51970    0.92520    0.89599    1.000
    Si4307   Si       0.58382    0.90356    0.93257    1.000
    N4308    N        0.59472    0.93294    0.96461    1.000
    N4309    N        0.56144    0.91848    0.89773    1.000
    N4310    N        0.51496    0.91109    0.99386    1.000
    Si4311   Si       0.65223    0.91060    0.89662    1.000
    Si4312   Si       0.61360    0.90914    0.99507    1.000
    Si4313   Si       0.52588    0.97687    0.07913    1.000
    N4314    N        0.52000    0.96534    0.03651    1.000
    N4315    N        0.60393    0.98337    0.11390    1.000
    Si4316   Si       0.52634    0.99055    0.00129    1.000
    N4317    N        0.61972    0.99152    0.00697    1.000
    N4318    N        0.67139    0.98282    0.05220    1.000
    Si4319   Si       0.65431    0.96553    0.01597    1.000
    Si4320   Si       0.70426    0.95768    0.06305    1.000
    N4321    N        0.73419    0.97971    0.08492    1.000
    N4322    N        0.58271    0.99452    0.21283    1.000
    N4323    N        0.52626    0.96674    0.15242    1.000
    N4324    N        0.51310    0.99741    0.20856    1.000
    Si4325   Si       0.50832    0.95585    0.21250    1.000
    Si4326   Si       0.52494    0.00848    0.16745    1.000
    N4327    N        0.66764    0.95621    0.14490    1.000
    N4328    N        0.72882    0.98698    0.16738    1.000
    N4329    N        0.67827    0.98276    0.21343    1.000
    Si4330   Si       0.69374    0.96359    0.17905    1.000
    Si4331   Si       0.64151    0.99000    0.13466    1.000
    Si4332   Si       0.56424    0.99644    0.31659    1.000
    N4333    N        0.57320    0.99892    0.27320    1.000
    N4334    N        0.54892    0.95643    0.32194    1.000
    Si4335   Si       0.51137    0.95665    0.30069    1.000
    N4336    N        0.60005    0.00075    0.34093    1.000
    Si4337   Si       0.60557    0.97937    0.24607    1.000
    N4338    N        0.48591    0.97457    0.39131    1.000
    Si4339   Si       0.67849    0.98516    0.25793    1.000
    N4340    N        0.63837    0.99372    0.26973    1.000
    N4341    N        0.66375    0.97021    0.32693    1.000
    Si4342   Si       0.70469    0.98379    0.32575    1.000
    N4343    N        0.71542    0.99175    0.28495    1.000
    Si4344   Si       0.63400    0.00062    0.31558    1.000
    N4345    N        0.73431    0.95579    0.34268    1.000
    N4346    N        0.55602    0.97893    0.38687    1.000
    Si4347   Si       0.52244    0.99236    0.41225    1.000
    N4348    N        0.59129    0.97232    0.47500    1.000
    N4349    N        0.52772    0.97267    0.45000    1.000
    Si4350   Si       0.54985    0.98223    0.48680    1.000
    Si4351   Si       0.58996    0.00526    0.38383    1.000
    Si4352   Si       0.61568    0.00128    0.45578    1.000
    Si4353   Si       0.63725    0.95271    0.40169    1.000
    Si4354   Si       0.68925    0.98591    0.46875    1.000
    N4355    N        0.68079    0.95981    0.40163    1.000
    N4356    N        0.61913    0.98982    0.41301    1.000
    Si4357   Si       0.70941    0.99379    0.39656    1.000
    N4358    N        0.59756    0.99007    0.56895    1.000
    N4359    N        0.54670    0.95525    0.52309    1.000
    Si4360   Si       0.56996    0.95717    0.56027    1.000
    Si4361   Si       0.51646    0.98298    0.61227    1.000
    N4362    N        0.54671    0.95310    0.59894    1.000
    Si4363   Si       0.62992    0.98332    0.59679    1.000
    N4364    N        0.71964    0.98507    0.56746    1.000
    N4365    N        0.71375    0.98651    0.50472    1.000
    N4366    N        0.65384    0.95263    0.57629    1.000
    Si4367   Si       0.55061    0.97123    0.69518    1.000
    N4368    N        0.52189    0.97169    0.72788    1.000
    N4369    N        0.60985    0.95886    0.62923    1.000
    N4370    N        0.58710    0.95160    0.70361    1.000
    N4371    N        0.53465    0.95170    0.66088    1.000
    N4372    N        0.70920    0.98921    0.63223    1.000
    Si4373   Si       0.61665    0.97430    0.72450    1.000
    N4374    N        0.74578    0.00876    0.72023    1.000
    Si4375   Si       0.69619    0.94903    0.57179    1.000
    Si4376   Si       0.70657    0.94809    0.64543    1.000
    N4377    N        0.65106    0.94983    0.73143    1.000
    Si4378   Si       0.52104    0.96592    0.77224    1.000
    N4379    N        0.59253    0.97552    0.83000    1.000
    N4380    N        0.53250    0.99891    0.79810    1.000
    N4381    N        0.60757    0.98172    0.76617    1.000
    N4382    N        0.66116    0.98809    0.80525    1.000
    N4383    N        0.70363    0.99559    0.85778    1.000
    N4384    N        0.73041    0.97935    0.79154    1.000
    Si4385   Si       0.62747    0.00411    0.82949    1.000
    Si4386   Si       0.70086    0.00260    0.81430    1.000
    Si4387   Si       0.65365    0.95399    0.77674    1.000
    N4388    N        0.51284    0.96535    0.87976    1.000
    Si4389   Si       0.53984    0.99815    0.88857    1.000
    N4390    N        0.57983    0.97861    0.89193    1.000
    Si4391   Si       0.59836    0.97791    0.96938    1.000
    N4392    N        0.56041    0.99809    0.97476    1.000
    N4393    N        0.49581    0.97242    0.97064    1.000
    Si4394   Si       0.70824    0.95606    0.87858    1.000
    Si4395   Si       0.66936    0.97748    0.93961    1.000
    Si4396   Si       0.72030    0.97754    0.99564    1.000
    N4397    N        0.62672    0.99046    0.93768    1.000
    N4398    N        0.68052    0.96704    0.98036    1.000
    Si4399   Si       0.56377    0.00974    0.82442    1.000
    Si4400   Si       0.60844    0.00804    0.90179    1.000
    N4401    N        0.77727    0.03636    0.06625    1.000
    Si4402   Si       0.76592    0.05697    0.10189    1.000
    N4403    N        0.83908    0.02012    0.02301    1.000
    Si4404   Si       0.80896    0.04784    0.03780    1.000
    N4405    N        0.84886    0.04801    0.11154    1.000
    N4406    N        0.78770    0.06511    0.00281    1.000
    Si4407   Si       0.83087    0.01015    0.11377    1.000
    N4408    N        0.92180    0.04455    0.10183    1.000
    N4409    N        0.96846    0.05296    0.04080    1.000
    N4410    N        0.77197    0.05541    0.17990    1.000
    N4411    N        0.82601    0.02464    0.21526    1.000
    Si4412   Si       0.79011    0.04734    0.21913    1.000
    Si4413   Si       0.85642    0.02016    0.18517    1.000
    N4414    N        0.75146    0.03129    0.23602    1.000
    N4415    N        0.87687    0.05448    0.16927    1.000
    N4416    N        0.96878    0.02087    0.13898    1.000
    Si4417   Si       0.88797    0.06201    0.12743    1.000
    Si4418   Si       0.95959    0.06385    0.13711    1.000
    N4419    N        0.93147    0.05141    0.21549    1.000
    N4420    N        0.81521    0.05181    0.30183    1.000
    N4421    N        0.84789    0.03388    0.36250    1.000
    Si4422   Si       0.81751    0.06100    0.34437    1.000
    N4423    N        0.95334    0.04625    0.28923    1.000
    Si4424   Si       0.89151    0.03824    0.36118    1.000
    N4425    N        0.96627    0.05063    0.35389    1.000
    Si4426   Si       0.92039    0.04553    0.25619    1.000
    Si4427   Si       0.98485    0.01511    0.28523    1.000
    N4428    N        0.78646    0.04577    0.42261    1.000
    N4429    N        0.82440    0.03851    0.47851    1.000
    Si4430   Si       0.86740    0.03739    0.49001    1.000
    Si4431   Si       0.96018    0.06394    0.39850    1.000
    N4432    N        0.88859    0.06050    0.46098    1.000
    N4433    N        0.95372    0.06260    0.44292    1.000
    N4434    N        0.91703    0.04046    0.39813    1.000
    Si4435   Si       0.91942    0.03516    0.44221    1.000
    Si4436   Si       0.81521    0.06688    0.44755    1.000
    N4437    N        0.91300    0.00843    0.33928    1.000
    Si4438   Si       0.95535    0.00928    0.35173    1.000
    N4439    N        0.76404    0.03046    0.52551    1.000
    N4440    N        0.75418    0.03709    0.59721    1.000
    Si4441   Si       0.83760    0.04317    0.61624    1.000
    Si4442   Si       0.77623    0.05462    0.56180    1.000
    Si4443   Si       0.79655    0.01388    0.49842    1.000
    N4444    N        0.81482    0.06409    0.58319    1.000
    N4445    N        0.86964    0.04238    0.53361    1.000
    N4446    N        0.92721    0.02029    0.56476    1.000
    Si4447   Si       0.91815    0.04228    0.59997    1.000
    Si4448   Si       0.95883    0.02128    0.53215    1.000
    N4449    N        0.87575    0.05860    0.60290    1.000
    N4450    N        0.95133    0.05687    0.50955    1.000
    Si4451   Si       0.74733    0.06214    0.63192    1.000
    N4452    N        0.82539    0.02967    0.70703    1.000
    N4453    N        0.75939    0.04900    0.67090    1.000
    Si4454   Si       0.80023    0.05798    0.68400    1.000
    Si4455   Si       0.85636    0.04585    0.73535    1.000
    N4456    N        0.87689    0.00774    0.68197    1.000
    N4457    N        0.97590    0.04325    0.64357    1.000
    N4458    N        0.89619    0.02784    0.73943    1.000
    N4459    N        0.91641    0.01419    0.63304    1.000
    Si4460   Si       0.98340    0.02605    0.72466    1.000
    Si4461   Si       0.90977    0.02944    0.69727    1.000
    Si4462   Si       0.80268    0.03435    0.78984    1.000
    Si4463   Si       0.84160    0.04800    0.84671    1.000
    N4464    N        0.84082    0.05445    0.77355    1.000
    N4465    N        0.81819    0.01739    0.82915    1.000
    N4466    N        0.77445    0.06330    0.77779    1.000
    Si4467   Si       0.92362    0.03425    0.82998    1.000
    N4468    N        0.88411    0.05090    0.83713    1.000
    N4469    N        0.95837    0.03588    0.75804    1.000
    Si4470   Si       0.92579    0.00678    0.76231    1.000
    N4471    N        0.93804    0.02900    0.87041    1.000
    N4472    N        0.83673    0.02721    0.95046    1.000
    Si4473   Si       0.85147    0.05614    0.92169    1.000
    Si4474   Si       0.78356    0.05274    0.89185    1.000
    N4475    N        0.75748    0.02480    0.91133    1.000
    N4476    N        0.82663    0.05081    0.88600    1.000
    Si4477   Si       0.85981    0.03264    0.98715    1.000
    N4478    N        0.98265    0.04643    0.97448    1.000
    N4479    N        0.89374    0.04569    0.92216    1.000
    Si4480   Si       0.98153    0.04921    0.93202    1.000
    N4481    N        0.94824    0.00842    0.93549    1.000
    Si4482   Si       0.90445    0.00955    0.94211    1.000
    Si4483   Si       0.92355    0.06458    0.89278    1.000
    Si4484   Si       0.83656    0.09206    0.10130    1.000
    Si4485   Si       0.76448    0.09761    0.01831    1.000
    N4486    N        0.83355    0.08259    0.05446    1.000
    N4487    N        0.79493    0.08614    0.12111    1.000
    Si4488   Si       0.77694    0.12124    0.09179    1.000
    N4489    N        0.87677    0.10460    0.21344    1.000
    Si4490   Si       0.87136    0.08625    0.03384    1.000
    N4491    N        0.87928    0.10261    0.11052    1.000
    N4492    N        0.96837    0.09011    0.10019    1.000
    N4493    N        0.91123    0.08977    0.05083    1.000
    N4494    N        0.97998    0.11569    0.01325    1.000
    Si4495   Si       0.90606    0.07996    0.19258    1.000
    Si4496   Si       0.94302    0.07030    0.07179    1.000
    N4497    N        0.74587    0.11635    0.16441    1.000
    N4498    N        0.79205    0.08660    0.23755    1.000
    Si4499   Si       0.78226    0.09443    0.16079    1.000
    N4500    N        0.81368    0.11870    0.18174    1.000
    Si4501   Si       0.97052    0.11987    0.17915    1.000
    N4502    N        0.93986    0.11489    0.20799    1.000
    N4503    N        0.92503    0.08608    0.15210    1.000
    N4504    N        0.78128    0.12122    0.04684    1.000
    N4505    N        0.83664    0.10017    0.34973    1.000
    Si4506   Si       0.74888    0.09822    0.33507    1.000
    Si4507   Si       0.80423    0.08750    0.27997    1.000
    N4508    N        0.76541    0.10161    0.29531    1.000
    N4509    N        0.83496    0.11709    0.26896    1.000
    Si4510   Si       0.74709    0.12300    0.26093    1.000
    N4511    N        0.77559    0.07167    0.35649    1.000
    Si4512   Si       0.88034    0.11088    0.34641    1.000
    N4513    N        0.94958    0.11425    0.30673    1.000
    N4514    N        0.90141    0.07432    0.34045    1.000
    Si4515   Si       0.87805    0.11391    0.25489    1.000
    N4516    N        0.89511    0.07570    0.26867    1.000
    Si4517   Si       0.94157    0.07325    0.32378    1.000
    Si4518   Si       0.87802    0.10185    0.44879    1.000
    Si4519   Si       0.76084    0.07013    0.39766    1.000
    N4520    N        0.79114    0.09613    0.47259    1.000
    N4521    N        0.76181    0.10971    0.41381    1.000
    N4522    N        0.84256    0.09505    0.42581    1.000
    Si4523   Si       0.75199    0.10638    0.45598    1.000
    Si4524   Si       0.83667    0.11867    0.39014    1.000
    N4525    N        0.95126    0.10529    0.38814    1.000
    N4526    N        0.97874    0.11691    0.48597    1.000
    N4527    N        0.91414    0.12425    0.44671    1.000
    Si4528   Si       0.97369    0.07437    0.47796    1.000
    Si4529   Si       0.79568    0.10948    0.51320    1.000
    N4530    N        0.76448    0.09205    0.53690    1.000
    N4531    N        0.83202    0.09534    0.52991    1.000
    Si4532   Si       0.85268    0.07371    0.56045    1.000
    Si4533   Si       0.80269    0.09891    0.61435    1.000
    N4534    N        0.87326    0.11369    0.57322    1.000
    Si4535   Si       0.89280    0.10044    0.60945    1.000
    N4536    N        0.93470    0.08376    0.61151    1.000
    N4537    N        0.97829    0.11802    0.55463    1.000
    Si4538   Si       0.95813    0.11918    0.59217    1.000
    N4539    N        0.76052    0.10292    0.62784    1.000
    N4540    N        0.79518    0.08857    0.71429    1.000
    Si4541   Si       0.83109    0.11493    0.72252    1.000
    N4542    N        0.86485    0.08961    0.72352    1.000
    Si4543   Si       0.76272    0.09086    0.74545    1.000
    N4544    N        0.81591    0.06912    0.64468    1.000
    N4545    N        0.97831    0.10380    0.67076    1.000
    Si4546   Si       0.90505    0.09952    0.71271    1.000
    N4547    N        0.87257    0.11897    0.64174    1.000
    Si4548   Si       0.95078    0.07558    0.65443    1.000
    N4549    N        0.92004    0.06987    0.68517    1.000
    Si4550   Si       0.84199    0.09565    0.78954    1.000
    Si4551   Si       0.78666    0.10200    0.84188    1.000
    N4552    N        0.82148    0.08308    0.82771    1.000
    N4553    N        0.76107    0.06895    0.85866    1.000
    N4554    N        0.90624    0.09950    0.87315    1.000
    Si4555   Si       0.89965    0.09156    0.83170    1.000
    Si4556   Si       0.95135    0.07693    0.77028    1.000
    N4557    N        0.87802    0.11634    0.80457    1.000
    N4558    N        0.93510    0.07239    0.81187    1.000
    N4559    N        0.92894    0.10797    0.75079    1.000
    Si4560   Si       0.81367    0.11198    0.91372    1.000
    N4561    N        0.75885    0.11611    0.97855    1.000
    Si4562   Si       0.76969    0.07306    0.96461    1.000
    Si4563   Si       0.85827    0.11087    0.97270    1.000
    N4564    N        0.78533    0.08186    0.92492    1.000
    N4565    N        0.85032    0.09959    0.93238    1.000
    N4566    N        0.96102    0.08066    0.91013    1.000
    N4567    N        0.86870    0.07470    0.99342    1.000
    Si4568   Si       0.96641    0.12439    0.90208    1.000
    N4569    N        0.82443    0.13048    0.99446    1.000
    N4570    N        0.81900    0.13647    0.09470    1.000
    Si4571   Si       0.82345    0.13303    0.04196    1.000
    Si4572   Si       0.81949    0.17935    0.09499    1.000
    N4573    N        0.74530    0.15388    0.10372    1.000
    N4574    N        0.81926    0.17967    0.05044    1.000
    Si4575   Si       0.94304    0.14837    0.23328    1.000
    N4576    N        0.86990    0.13237    0.04211    1.000
    N4577    N        0.91113    0.15483    0.10022    1.000
    N4578    N        0.92989    0.16257    0.03755    1.000
    Si4579   Si       0.96444    0.15464    0.01447    1.000
    Si4580   Si       0.88979    0.16054    0.01636    1.000
    N4581    N        0.97989    0.16139    0.08353    1.000
    Si4582   Si       0.94133    0.17767    0.07781    1.000
    Si4583   Si       0.98403    0.12834    0.11301    1.000
    Si4584   Si       0.89665    0.12271    0.07480    1.000
    Si4585   Si       0.91395    0.12605    0.13573    1.000
    N4586    N        0.84354    0.15900    0.22237    1.000
    N4587    N        0.76965    0.14873    0.23122    1.000
    Si4588   Si       0.85660    0.13358    0.18682    1.000
    Si4589   Si       0.81076    0.12858    0.22818    1.000
    Si4590   Si       0.88955    0.18203    0.12988    1.000
    N4591    N        0.94946    0.18002    0.20425    1.000
    Si4592   Si       0.87310    0.18053    0.24513    1.000
    N4593    N        0.88546    0.14849    0.15930    1.000
    N4594    N        0.95629    0.14114    0.14412    1.000
    N4595    N        0.74902    0.18470    0.16798    1.000
    N4596    N        0.74978    0.13829    0.35126    1.000
    N4597    N        0.81729    0.17229    0.31696    1.000
    Si4598   Si       0.86038    0.17841    0.31980    1.000
    N4599    N        0.88539    0.14333    0.31912    1.000
    Si4600   Si       0.92313    0.14795    0.29944    1.000
    N4601    N        0.90600    0.14994    0.25788    1.000
    N4602    N        0.98050    0.14603    0.25439    1.000
    N4603    N        0.94345    0.18562    0.30571    1.000
    N4604    N        0.80171    0.16574    0.45299    1.000
    N4605    N        0.80937    0.15223    0.39101    1.000
    Si4606   Si       0.76515    0.14506    0.39038    1.000
    Si4607   Si       0.82883    0.16025    0.48491    1.000
    Si4608   Si       0.76000    0.18143    0.45597    1.000
    N4609    N        0.86207    0.13372    0.47633    1.000
    N4610    N        0.75380    0.18194    0.40961    1.000
    N4611    N        0.74017    0.14546    0.47281    1.000
    N4612    N        0.97890    0.15857    0.42697    1.000
    Si4613   Si       0.90311    0.14622    0.48289    1.000
    N4614    N        0.87849    0.13249    0.38582    1.000
    N4615    N        0.92784    0.17634    0.39458    1.000
    Si4616   Si       0.88524    0.17652    0.38880    1.000
    Si4617   Si       0.94187    0.13724    0.41466    1.000
    N4618    N        0.90796    0.18705    0.47517    1.000
    Si4619   Si       0.75429    0.18599    0.25178    1.000
    N4620    N        0.80514    0.15169    0.52092    1.000
    Si4621   Si       0.83783    0.13580    0.55464    1.000
    N4622    N        0.81048    0.13469    0.59036    1.000
    Si4623   Si       0.78699    0.17184    0.59970    1.000
    N4624    N        0.74466    0.16378    0.60629    1.000
    Si4625   Si       0.77640    0.18286    0.53100    1.000
    N4626    N        0.86501    0.17255    0.54917    1.000
    N4627    N        0.92585    0.15058    0.59221    1.000
    Si4628   Si       0.89942    0.14824    0.55911    1.000
    Si4629   Si       0.96313    0.13926    0.51958    1.000
    N4630    N        0.96277    0.18359    0.52141    1.000
    N4631    N        0.91824    0.13733    0.52185    1.000
    N4632    N        0.98672    0.14184    0.61567    1.000
    Si4633   Si       0.79873    0.17494    0.67833    1.000
    N4634    N        0.83144    0.14694    0.68902    1.000
    N4635    N        0.75948    0.15298    0.67642    1.000
    Si4636   Si       0.92201    0.18216    0.62282    1.000
    N4637    N        0.73882    0.16161    0.54079    1.000
    Si4638   Si       0.98060    0.14593    0.65838    1.000
    N4639    N        0.90026    0.14165    0.69939    1.000
    N4640    N        0.94619    0.17247    0.65797    1.000
    Si4641   Si       0.86839    0.14983    0.66977    1.000
    Si4642   Si       0.92197    0.17871    0.69586    1.000
    N4643    N        0.94996    0.17307    0.72691    1.000
    Si4644   Si       0.78410    0.14966    0.77828    1.000
    N4645    N        0.77125    0.13009    0.81429    1.000
    N4646    N        0.75616    0.13402    0.74754    1.000
    Si4647   Si       0.88164    0.15943    0.80955    1.000
    Si4648   Si       0.93364    0.15101    0.76112    1.000
    Si4649   Si       0.95141    0.16643    0.83557    1.000
    N4650    N        0.90925    0.15852    0.84307    1.000
    N4651    N        0.96298    0.15510    0.79548    1.000
    N4652    N        0.97536    0.14275    0.86317    1.000
    N4653    N        0.90189    0.17768    0.77458    1.000
    N4654    N        0.74277    0.16013    0.87068    1.000
    N4655    N        0.80574    0.15074    0.93204    1.000
    Si4656   Si       0.79026    0.14548    0.97168    1.000
    Si4657   Si       0.78026    0.16673    0.89313    1.000
    N4658    N        0.79802    0.13050    0.87521    1.000
    N4659    N        0.75374    0.18309    0.92698    1.000
    N4660    N        0.77621    0.18214    0.98974    1.000
    N4661    N        0.95589    0.16686    0.97389    1.000
    N4662    N        0.89045    0.14078    0.97610    1.000
    Si4663   Si       0.89998    0.14157    0.88344    1.000
    Si4664   Si       0.98650    0.17785    0.94473    1.000
    N4665    N        0.86516    0.16707    0.89457    1.000
    N4666    N        0.93041    0.14532    0.91456    1.000
    Si4667   Si       0.91772    0.16536    0.95119    1.000
    N4668    N        0.82087    0.12572    0.76523    1.000
    N4669    N        0.78540    0.20696    0.09993    1.000
    Si4670   Si       0.78430    0.19634    0.02841    1.000
    Si4671   Si       0.84420    0.21643    0.03930    1.000
    N4672    N        0.80702    0.23258    0.02342    1.000
    Si4673   Si       0.74486    0.19323    0.08835    1.000
    N4674    N        0.85503    0.19780    0.11177    1.000
    N4675    N        0.74476    0.19743    0.04473    1.000
    Si4676   Si       0.85339    0.24082    0.10888    1.000
    N4677    N        0.87424    0.19950    0.01290    1.000
    N4678    N        0.93947    0.22005    0.08482    1.000
    N4679    N        0.96886    0.23323    0.01160    1.000
    N4680    N        0.80085    0.22883    0.20562    1.000
    Si4681   Si       0.76192    0.22153    0.18901    1.000
    N4682    N        0.89024    0.21089    0.22087    1.000
    Si4683   Si       0.80044    0.24576    0.24552    1.000
    N4684    N        0.91610    0.21020    0.14781    1.000
    Si4685   Si       0.92232    0.21094    0.19079    1.000
    N4686    N        0.86140    0.24560    0.06572    1.000
    Si4687   Si       0.92925    0.24199    0.12136    1.000
    N4688    N        0.75373    0.20602    0.33228    1.000
    N4689    N        0.78167    0.21613    0.27053    1.000
    Si4690   Si       0.79188    0.20561    0.31173    1.000
    Si4691   Si       0.85270    0.23949    0.29552    1.000
    N4692    N        0.81820    0.23942    0.32227    1.000
    N4693    N        0.86513    0.19910    0.28291    1.000
    N4694    N        0.97086    0.23102    0.40928    1.000
    N4695    N        0.87500    0.20177    0.35337    1.000
    Si4696   Si       0.97287    0.20693    0.32852    1.000
    Si4697   Si       0.74256    0.23848    0.48701    1.000
    N4698    N        0.84352    0.20294    0.49195    1.000
    Si4699   Si       0.80973    0.22923    0.48028    1.000
    N4700    N        0.80528    0.23041    0.43529    1.000
    Si4701   Si       0.81589    0.18840    0.42028    1.000
    N4702    N        0.85952    0.18960    0.42171    1.000
    Si4703   Si       0.87333    0.20724    0.45822    1.000
    N4704    N        0.96803    0.23062    0.48020    1.000
    Si4705   Si       0.97046    0.18939    0.39729    1.000
    N4706    N        0.95300    0.24423    0.34079    1.000
    N4707    N        0.77433    0.20751    0.49464    1.000
    N4708    N        0.79216    0.20183    0.56660    1.000
    N4709    N        0.84707    0.23945    0.56104    1.000
    Si4710   Si       0.80326    0.24335    0.57597    1.000
    N4711    N        0.88557    0.18533    0.64842    1.000
    Si4712   Si       0.86278    0.21322    0.53135    1.000
    N4713    N        0.90059    0.23613    0.51788    1.000
    Si4714   Si       0.93326    0.21035    0.50063    1.000
    N4715    N        0.93238    0.21898    0.60507    1.000
    N4716    N        0.85311    0.24039    0.62621    1.000
    N4717    N        0.83305    0.21532    0.68202    1.000
    Si4718   Si       0.75568    0.22354    0.72971    1.000
    Si4719   Si       0.82436    0.21880    0.72196    1.000
    Si4720   Si       0.81272    0.23224    0.64620    1.000
    N4721    N        0.78812    0.19533    0.71846    1.000
    N4722    N        0.80187    0.18896    0.63773    1.000
    N4723    N        0.89704    0.21464    0.70683    1.000
    Si4724   Si       0.87264    0.22510    0.66586    1.000
    N4725    N        0.84642    0.20466    0.75518    1.000
    Si4726   Si       0.82653    0.21049    0.79430    1.000
    Si4727   Si       0.74604    0.21116    0.79916    1.000
    Si4728   Si       0.84810    0.19361    0.86384    1.000
    N4729    N        0.78605    0.19393    0.79237    1.000
    N4730    N        0.85501    0.23694    0.86673    1.000
    N4731    N        0.74155    0.24070    0.76734    1.000
    N4732    N        0.84967    0.18440    0.82156    1.000
    N4733    N        0.96247    0.20595    0.84787    1.000
    Si4734   Si       0.88778    0.21380    0.75088    1.000
    Si4735   Si       0.75843    0.20761    0.96031    1.000
    N4736    N        0.83582    0.21181    0.95307    1.000
    N4737    N        0.80885    0.20175    0.88840    1.000
    N4738    N        0.96804    0.20640    0.91791    1.000
    Si4739   Si       0.93195    0.23083    0.92458    1.000
    Si4740   Si       0.87419    0.21846    0.97228    1.000
    N4741    N        0.90449    0.20504    0.94585    1.000
    Si4742   Si       0.99184    0.20853    0.88066    1.000
    N4743    N        0.77951    0.24363    0.94686    1.000
    Si4744   Si       0.83268    0.18244    0.92223    1.000
    Si4745   Si       0.79502    0.27351    0.02417    1.000
    N4746    N        0.75437    0.28976    0.02527    1.000
    N4747    N        0.74937    0.26824    0.09546    1.000
    N4748    N        0.80482    0.29210    0.06322    1.000
    Si4749   Si       0.76163    0.29809    0.06819    1.000
    Si4750   Si       0.77737    0.24833    0.11945    1.000
    N4751    N        0.93644    0.25117    0.19844    1.000
    Si4752   Si       0.95799    0.24837    0.05404    1.000
    N4753    N        0.92536    0.27699    0.04831    1.000
    Si4754   Si       0.88894    0.27687    0.07120    1.000
    N4755    N        0.89188    0.26624    0.11648    1.000
    Si4756   Si       0.87447    0.25385    0.22523    1.000
    N4757    N        0.79980    0.29423    0.19060    1.000
    N4758    N        0.81881    0.25280    0.13357    1.000
    Si4759   Si       0.82008    0.25795    0.17733    1.000
    N4760    N        0.75774    0.25303    0.15880    1.000
    Si4761   Si       0.75880    0.29595    0.17045    1.000
    N4762    N        0.86389    0.26402    0.18567    1.000
    N4763    N        0.96811    0.30099    0.21347    1.000
    N4764    N        0.96177    0.26760    0.13662    1.000
    Si4765   Si       0.94198    0.27366    0.23710    1.000
    Si4766   Si       0.95023    0.28583    0.17449    1.000
    Si4767   Si       0.88070    0.28716    0.15307    1.000
    Si4768   Si       0.81578    0.26898    0.35368    1.000
    Si4769   Si       0.74385    0.28992    0.27277    1.000
    N4770    N        0.84307    0.25276    0.25525    1.000
    N4771    N        0.78331    0.28670    0.25381    1.000
    Si4772   Si       0.87256    0.26269    0.49196    1.000
    N4773    N        0.87959    0.26265    0.31882    1.000
    N4774    N        0.96325    0.25707    0.27132    1.000
    Si4775   Si       0.95703    0.27531    0.31077    1.000
    Si4776   Si       0.89226    0.29423    0.29142    1.000
    N4777    N        0.90167    0.27988    0.25082    1.000
    Si4778   Si       0.87881    0.27219    0.41604    1.000
    Si4779   Si       0.87677    0.24536    0.35963    1.000
    Si4780   Si       0.74044    0.28124    0.38661    1.000
    N4781    N        0.78098    0.26662    0.38141    1.000
    Si4782   Si       0.80954    0.26796    0.41409    1.000
    N4783    N        0.76950    0.27196    0.48108    1.000
    N4784    N        0.84593    0.26294    0.38737    1.000
    N4785    N        0.87704    0.24844    0.45276    1.000
    N4786    N        0.90713    0.25684    0.38890    1.000
    N4787    N        0.96470    0.29693    0.39484    1.000
    Si4788   Si       0.95028    0.25709    0.38253    1.000
    Si4789   Si       0.76503    0.30458    0.45350    1.000
    Si4790   Si       0.79685    0.28337    0.51358    1.000
    N4791    N        0.77766    0.26586    0.54800    1.000
    N4792    N        0.82095    0.29060    0.58889    1.000
    Si4793   Si       0.86197    0.26855    0.59360    1.000
    N4794    N        0.75241    0.30109    0.61765    1.000
    N4795    N        0.78112    0.24724    0.61643    1.000
    Si4796   Si       0.90686    0.26849    0.71222    1.000
    N4797    N        0.83027    0.26216    0.49770    1.000
    N4798    N        0.98471    0.25905    0.58757    1.000
    N4799    N        0.90504    0.27549    0.57961    1.000
    N4800    N        0.95728    0.28488    0.53300    1.000
    Si4801   Si       0.91621    0.27344    0.53688    1.000
    Si4802   Si       0.94294    0.25878    0.59759    1.000
    N4803    N        0.89338    0.29678    0.50872    1.000
    Si4804   Si       0.79464    0.29539    0.62559    1.000
    N4805    N        0.81044    0.27533    0.66407    1.000
    Si4806   Si       0.79147    0.28096    0.70422    1.000
    N4807    N        0.81754    0.25936    0.73245    1.000
    N4808    N        0.75243    0.25922    0.70510    1.000
    Si4809   Si       0.85188    0.29653    0.66321    1.000
    Si4810   Si       0.97934    0.26143    0.73069    1.000
    N4811    N        0.87805    0.26791    0.68016    1.000
    N4812    N        0.94206    0.28972    0.63066    1.000
    N4813    N        0.94795    0.26358    0.69837    1.000
    Si4814   Si       0.96614    0.28631    0.66721    1.000
    Si4815   Si       0.84714    0.27660    0.76236    1.000
    N4816    N        0.79076    0.27318    0.85956    1.000
    N4817    N        0.84036    0.25427    0.80042    1.000
    Si4818   Si       0.74419    0.27027    0.86669    1.000
    Si4819   Si       0.87115    0.25980    0.83281    1.000
    N4820    N        0.95895    0.26774    0.76741    1.000
    Si4821   Si       0.91964    0.27562    0.78513    1.000
    N4822    N        0.97753    0.27169    0.84068    1.000
    N4823    N        0.89026    0.25995    0.75466    1.000
    N4824    N        0.91159    0.24909    0.82069    1.000
    Si4825   Si       0.98778    0.28014    0.79813    1.000
    N4826    N        0.88203    0.29924    0.85058    1.000
    Si4827   Si       0.94392    0.24536    0.84881    1.000
    Si4828   Si       0.82279    0.25670    0.95931    1.000
    N4829    N        0.82642    0.27326    0.91823    1.000
    N4830    N        0.80857    0.28975    0.98611    1.000
    Si4831   Si       0.74875    0.26997    0.93081    1.000
    Si4832   Si       0.81779    0.24645    0.88467    1.000
    N4833    N        0.93000    0.26244    0.95424    1.000
    N4834    N        0.86723    0.26137    0.97574    1.000
    Si4835   Si       0.96346    0.26704    0.98115    1.000
    Si4836   Si       0.89434    0.28855    0.95883    1.000
    N4837    N        0.92844    0.25520    0.88820    1.000
    Si4838   Si       0.90858    0.29686    0.88448    1.000
    N4839    N        0.75025    0.30143    0.90140    1.000
    Si4840   Si       0.83215    0.32520    0.06353    1.000
    N4841    N        0.82651    0.34756    0.02593    1.000
    Si4842   Si       0.74989    0.35434    0.11283    1.000
    N4843    N        0.82297    0.35194    0.09646    1.000
    N4844    N        0.74544    0.33815    0.07187    1.000
    N4845    N        0.87472    0.31665    0.06658    1.000
    Si4846   Si       0.93239    0.31172    0.02464    1.000
    N4847    N        0.93525    0.34577    0.05161    1.000
    Si4848   Si       0.89896    0.35350    0.07195    1.000
    Si4849   Si       0.97269    0.35373    0.06851    1.000
    N4850    N        0.98326    0.33104    0.10323    1.000
    N4851    N        0.96982    0.30423    0.00491    1.000
    N4852    N        0.85176    0.32245    0.15176    1.000
    Si4853   Si       0.85293    0.34917    0.18548    1.000
    N4854    N        0.77520    0.34728    0.22160    1.000
    Si4855   Si       0.80361    0.31527    0.22760    1.000
    N4856    N        0.77284    0.32627    0.13689    1.000
    Si4857   Si       0.81411    0.33775    0.13752    1.000
    N4858    N        0.84239    0.33485    0.22557    1.000
    Si4859   Si       0.91517    0.35250    0.15398    1.000
    N4860    N        0.91518    0.31098    0.16372    1.000
    Si4861   Si       0.85081    0.33814    0.33355    1.000
    Si4862   Si       0.85032    0.35526    0.26256    1.000
    N4863    N        0.82341    0.30743    0.34314    1.000
    Si4864   Si       0.76945    0.35886    0.26374    1.000
    Si4865   Si       0.74486    0.36060    0.37042    1.000
    N4866    N        0.73428    0.31899    0.36479    1.000
    N4867    N        0.86754    0.33012    0.29379    1.000
    N4868    N        0.92813    0.30812    0.31004    1.000
    N4869    N        0.95716    0.35200    0.36426    1.000
    N4870    N        0.88912    0.34139    0.35702    1.000
    Si4871   Si       0.92488    0.34456    0.33338    1.000
    Si4872   Si       0.98675    0.31917    0.36469    1.000
    Si4873   Si       0.80946    0.35003    0.42742    1.000
    N4874    N        0.75544    0.33913    0.47633    1.000
    N4875    N        0.80312    0.30750    0.43344    1.000
    N4876    N        0.73668    0.33494    0.28200    1.000
    Si4877   Si       0.88407    0.34765    0.39836    1.000
    Si4878   Si       0.97421    0.31568    0.43508    1.000
    N4879    N        0.94359    0.32099    0.46456    1.000
    N4880    N        0.88436    0.31394    0.42643    1.000
    Si4881   Si       0.90610    0.34051    0.45386    1.000
    N4882    N        0.88125    0.35993    0.48640    1.000
    N4883    N        0.98941    0.35340    0.42234    1.000
    N4884    N        0.80929    0.35960    0.27924    1.000
    N4885    N        0.80430    0.32503    0.52131    1.000
    Si4886   Si       0.81998    0.32589    0.56027    1.000
    N4887    N        0.78872    0.34575    0.58165    1.000
    Si4888   Si       0.74862    0.33067    0.58581    1.000
    N4889    N        0.85960    0.34227    0.55601    1.000
    Si4890   Si       0.78767    0.35825    0.49938    1.000
    N4891    N        0.91365    0.35354    0.59999    1.000
    N4892    N        0.93205    0.34448    0.53382    1.000
    Si4893   Si       0.88871    0.33897    0.52264    1.000
    Si4894   Si       0.95585    0.32062    0.50637    1.000
    Si4895   Si       0.91073    0.31165    0.61292    1.000
    Si4896   Si       0.75034    0.33626    0.73944    1.000
    Si4897   Si       0.80915    0.34747    0.68841    1.000
    N4898    N        0.84970    0.33023    0.69027    1.000
    N4899    N        0.78157    0.32277    0.71301    1.000
    N4900    N        0.80307    0.33696    0.64663    1.000
    N4901    N        0.87099    0.30442    0.62542    1.000
    N4902    N        0.97470    0.32679    0.68293    1.000
    Si4903   Si       0.93896    0.34404    0.70567    1.000
    N4904    N        0.91044    0.31330    0.71803    1.000
    Si4905   Si       0.87220    0.33409    0.72730    1.000
    N4906    N        0.94392    0.36052    0.74636    1.000
    N4907    N        0.76983    0.34269    0.77725    1.000
    N4908    N        0.76033    0.33575    0.84674    1.000
    Si4909   Si       0.81244    0.34234    0.77419    1.000
    N4910    N        0.82281    0.33481    0.81664    1.000
    Si4911   Si       0.79931    0.31601    0.85033    1.000
    N4912    N        0.84411    0.31981    0.75533    1.000
    Si4913   Si       0.74864    0.35738    0.81093    1.000
    Si4914   Si       0.95287    0.34406    0.78482    1.000
    N4915    N        0.92030    0.31610    0.79801    1.000
    Si4916   Si       0.90352    0.33601    0.83464    1.000
    N4917    N        0.99079    0.32329    0.79301    1.000
    N4918    N        0.92590    0.33733    0.87294    1.000
    Si4919   Si       0.81188    0.33421    0.98694    1.000
    Si4920   Si       0.84148    0.31503    0.91873    1.000
    N4921    N        0.82155    0.33465    0.88431    1.000
    N4922    N        0.83772    0.33992    0.95283    1.000
    N4923    N        0.77224    0.34275    0.97444    1.000
    Si4924   Si       0.74422    0.34250    0.88800    1.000
    Si4925   Si       0.74531    0.31370    0.99158    1.000
    Si4926   Si       0.93140    0.35149    0.96521    1.000
    N4927    N        0.95594    0.33604    0.93158    1.000
    N4928    N        0.90800    0.32098    0.98902    1.000
    N4929    N        0.88473    0.30450    0.91952    1.000
    Si4930   Si       0.84244    0.38861    0.03061    1.000
    N4931    N        0.77205    0.39150    0.10763    1.000
    Si4932   Si       0.81351    0.39438    0.09350    1.000
    N4933    N        0.81255    0.41149    0.05296    1.000
    N4934    N        0.84428    0.41738    0.11378    1.000
    Si4935   Si       0.74868    0.41755    0.08165    1.000
    N4936    N        0.87996    0.38998    0.05585    1.000
    N4937    N        0.97149    0.39169    0.09319    1.000
    Si4938   Si       0.88426    0.40321    0.09924    1.000
    N4939    N        0.90177    0.36604    0.11338    1.000
    Si4940   Si       0.96975    0.41428    0.99969    1.000
    N4941    N        0.94496    0.42074    0.03504    1.000
    N4942    N        0.80495    0.40980    0.22707    1.000
    N4943    N        0.75002    0.40251    0.18555    1.000
    Si4944   Si       0.78623    0.38184    0.19872    1.000
    N4945    N        0.81699    0.36888    0.17043    1.000
    Si4946   Si       0.89973    0.39793    0.21762    1.000
    Si4947   Si       0.96922    0.39594    0.18858    1.000
    N4948    N        0.89020    0.37208    0.18549    1.000
    N4949    N        0.94206    0.40538    0.22030    1.000
    Si4950   Si       0.98708    0.36797    0.12755    1.000
    N4951    N        0.95660    0.36639    0.15885    1.000
    N4952    N        0.74218    0.39710    0.04160    1.000
    N4953    N        0.75784    0.39948    0.27436    1.000
    N4954    N        0.83400    0.37700    0.34061    1.000
    Si4955   Si       0.80240    0.38558    0.31508    1.000
    N4956    N        0.76306    0.37563    0.33432    1.000
    Si4957   Si       0.95571    0.37250    0.40240    1.000
    N4958    N        0.98721    0.40607    0.27294    1.000
    N4959    N        0.93518    0.38047    0.31169    1.000
    Si4960   Si       0.90728    0.40704    0.28467    1.000
    Si4961   Si       0.97623    0.39592    0.31496    1.000
    N4962    N        0.88185    0.38426    0.25574    1.000
    Si4963   Si       0.84505    0.39984    0.37559    1.000
    Si4964   Si       0.74674    0.39672    0.42115    1.000
    Si4965   Si       0.85150    0.38906    0.47076    1.000
    N4966    N        0.81450    0.36913    0.46809    1.000
    N4967    N        0.77173    0.36317    0.40734    1.000
    N4968    N        0.84461    0.36473    0.40556    1.000
    N4969    N        0.95094    0.41559    0.40386    1.000
    N4970    N        0.88373    0.41796    0.37497    1.000
    Si4971   Si       0.90597    0.41484    0.41317    1.000
    N4972    N        0.87629    0.41358    0.44518    1.000
    N4973    N        0.91498    0.36756    0.41933    1.000
    N4974    N        0.76082    0.38352    0.52114    1.000
    N4975    N        0.84424    0.38279    0.61169    1.000
    Si4976   Si       0.80354    0.36892    0.61646    1.000
    N4977    N        0.94923    0.40959    0.55421    1.000
    N4978    N        0.88202    0.40954    0.56953    1.000
    N4979    N        0.97192    0.37150    0.60485    1.000
    Si4980   Si       0.94427    0.36780    0.56877    1.000
    Si4981   Si       0.87540    0.36828    0.58660    1.000
    N4982    N        0.77589    0.39623    0.62918    1.000
    Si4983   Si       0.77019    0.40695    0.71857    1.000
    Si4984   Si       0.84744    0.40724    0.72070    1.000
    N4985    N        0.80827    0.38671    0.70772    1.000
    Si4986   Si       0.91752    0.39706    0.74454    1.000
    N4987    N        0.92113    0.36575    0.67070    1.000
    Si4988   Si       0.93704    0.37575    0.63204    1.000
    N4989    N        0.92144    0.41792    0.63459    1.000
    Si4990   Si       0.90681    0.40701    0.67753    1.000
    N4991    N        0.88063    0.37870    0.73259    1.000
    N4992    N        0.86600    0.41903    0.68275    1.000
    N4993    N        0.93607    0.41643    0.71053    1.000
    N4994    N        0.74054    0.37619    0.72495    1.000
    N4995    N        0.74967    0.40148    0.81767    1.000
    N4996    N        0.81329    0.39455    0.84940    1.000
    N4997    N        0.82512    0.38926    0.77972    1.000
    Si4998   Si       0.83805    0.37425    0.82030    1.000
    Si4999   Si       0.90995    0.40475    0.81842    1.000
    N5000    N        0.88029    0.37237    0.82536    1.000
    N5001    N        0.94322    0.37490    0.81491    1.000
    Si5002   Si       0.98146    0.39231    0.83004    1.000
    N5003    N        0.90916    0.41950    0.77851    1.000
    N5004    N        0.77067    0.37138    0.90721    1.000
    Si5005   Si       0.80944    0.37730    0.88900    1.000
    Si5006   Si       0.75515    0.37452    0.94738    1.000
    N5007    N        0.83361    0.39744    0.91895    1.000
    Si5008   Si       0.85615    0.37997    0.95228    1.000
    N5009    N        0.84771    0.40296    0.98996    1.000
    N5010    N        0.74299    0.41210    0.96736    1.000
    Si5011   Si       0.91877    0.41709    0.94254    1.000
    N5012    N        0.96319    0.37256    0.98924    1.000
    N5013    N        0.94357    0.40275    0.90965    1.000
    N5014    N        0.90050    0.37854    0.95098    1.000
    N5015    N        0.98885    0.38209    0.87282    1.000
    Si5016   Si       0.95379    0.36157    0.89537    1.000
    N5017    N        0.76818    0.45777    0.08221    1.000
    Si5018   Si       0.79747    0.45153    0.04869    1.000
    N5019    N        0.77601    0.45620    0.01310    1.000
    Si5020   Si       0.74370    0.42408    0.00952    1.000
    N5021    N        0.89320    0.45741    0.01163    1.000
    N5022    N        0.91128    0.43664    0.08645    1.000
    N5023    N        0.97786    0.46310    0.07270    1.000
    Si5024   Si       0.90758    0.47271    0.11213    1.000
    Si5025   Si       0.95450    0.42898    0.07712    1.000
    Si5026   Si       0.90273    0.42759    0.04238    1.000
    N5027    N        0.82773    0.45867    0.17932    1.000
    Si5028   Si       0.83695    0.43678    0.21638    1.000
    Si5029   Si       0.84275    0.45337    0.13795    1.000
    N5030    N        0.87940    0.43424    0.21044    1.000
    Si5031   Si       0.96167    0.47163    0.16401    1.000
    N5032    N        0.88416    0.46797    0.14793    1.000
    Si5033   Si       0.89279    0.47076    0.19223    1.000
    N5034    N        0.97405    0.43017    0.16417    1.000
    Si5035   Si       0.96472    0.43170    0.24740    1.000
    Si5036   Si       0.93512    0.47088    0.99755    1.000
    Si5037   Si       0.80573    0.45566    0.33980    1.000
    Si5038   Si       0.84684    0.44853    0.29265    1.000
    N5039    N        0.77222    0.46687    0.26128    1.000
    N5040    N        0.80812    0.42764    0.30358    1.000
    Si5041   Si       0.78896    0.42825    0.26344    1.000
    N5042    N        0.83336    0.45965    0.25400    1.000
    N5043    N        0.84471    0.47586    0.32953    1.000
    N5044    N        0.76724    0.47496    0.33770    1.000
    Si5045   Si       0.88242    0.45455    0.35042    1.000
    N5046    N        0.92854    0.44226    0.27231    1.000
    N5047    N        0.97621    0.43278    0.33630    1.000
    N5048    N        0.88097    0.42951    0.31006    1.000
    Si5049   Si       0.96555    0.47557    0.33634    1.000
    N5050    N        0.91987    0.47618    0.33839    1.000
    N5051    N        0.81858    0.43468    0.37541    1.000
    N5052    N        0.76944    0.43503    0.42309    1.000
    Si5053   Si       0.77698    0.45693    0.46210    1.000
    Si5054   Si       0.80441    0.46074    0.40788    1.000
    N5055    N        0.81195    0.47583    0.44655    1.000
    Si5056   Si       0.91885    0.47853    0.29417    1.000
    N5057    N        0.97705    0.45124    0.45967    1.000
    Si5058   Si       0.95204    0.46540    0.49196    1.000
    Si5059   Si       0.88432    0.44324    0.47671    1.000
    N5060    N        0.91672    0.45809    0.43341    1.000
    Si5061   Si       0.95837    0.45569    0.42108    1.000
    N5062    N        0.75815    0.45902    0.55486    1.000
    Si5063   Si       0.82173    0.44098    0.52374    1.000
    Si5064   Si       0.79800    0.47335    0.56719    1.000
    N5065    N        0.81719    0.43293    0.56698    1.000
    Si5066   Si       0.75223    0.42806    0.52535    1.000
    Si5067   Si       0.84718    0.42229    0.59441    1.000
    N5068    N        0.85217    0.42249    0.50022    1.000
    N5069    N        0.75489    0.45965    0.62200    1.000
    N5070    N        0.86319    0.44987    0.62253    1.000
    Si5071   Si       0.98523    0.43292    0.54717    1.000
    N5072    N        0.97365    0.47241    0.52977    1.000
    N5073    N        0.91534    0.46774    0.57967    1.000
    Si5074   Si       0.91256    0.43604    0.54995    1.000
    N5075    N        0.91597    0.44319    0.50525    1.000
    Si5076   Si       0.90612    0.45492    0.62022    1.000
    Si5077   Si       0.77276    0.43070    0.65156    1.000
    N5078    N        0.83955    0.44722    0.73881    1.000
    N5079    N        0.75174    0.43021    0.68609    1.000
    N5080    N        0.80511    0.46005    0.65839    1.000
    Si5081   Si       0.84731    0.45289    0.66232    1.000
    N5082    N        0.97223    0.47073    0.69085    1.000
    Si5083   Si       0.97684    0.43364    0.70785    1.000
    N5084    N        0.78750    0.43884    0.49941    1.000
    N5085    N        0.80093    0.45481    0.80758    1.000
    Si5086   Si       0.81143    0.43242    0.77200    1.000
    N5087    N        0.76540    0.44058    0.86707    1.000
    Si5088   Si       0.75964    0.48126    0.74980    1.000
    N5089    N        0.84169    0.45627    0.87066    1.000
    Si5090   Si       0.78377    0.42338    0.83353    1.000
    N5091    N        0.97315    0.43506    0.82379    1.000
    Si5092   Si       0.94487    0.46050    0.84617    1.000
    N5093    N        0.90570    0.44104    0.84514    1.000
    Si5094   Si       0.87867    0.47425    0.85436    1.000
    Si5095   Si       0.79842    0.47047    0.87767    1.000
    Si5096   Si       0.84307    0.44067    0.91262    1.000
    N5097    N        0.80795    0.46849    0.91964    1.000
    N5098    N        0.96244    0.46390    0.88756    1.000
    N5099    N        0.94529    0.43616    0.97069    1.000
    Si5100   Si       0.86352    0.44248    0.97972    1.000
    Si5101   Si       0.98001    0.42379    0.89695    1.000
    N5102    N        0.88042    0.43934    0.93997    1.000
    N5103    N        0.77286    0.43844    0.74930    1.000
    Si5104   Si       0.84442    0.50507    0.08281    1.000
    Si5105   Si       0.81457    0.51337    0.01622    1.000
    Si5106   Si       0.77842    0.48735    0.11224    1.000
    N5107    N        0.82093    0.48701    0.04963    1.000
    N5108    N        0.77788    0.53086    0.10915    1.000
    N5109    N        0.85337    0.53191    0.01420    1.000
    N5110    N        0.82320    0.48058    0.11327    1.000
    N5111    N        0.88710    0.50227    0.08749    1.000
    Si5112   Si       0.97358    0.49818    0.09797    1.000
    N5113    N        0.97605    0.48736    0.00614    1.000
    N5114    N        0.95295    0.53379    0.08406    1.000
    Si5115   Si       0.87704    0.49774    0.99965    1.000
    N5116    N        0.83001    0.53117    0.15661    1.000
    N5117    N        0.76599    0.49325    0.15496    1.000
    N5118    N        0.80364    0.51624    0.21790    1.000
    Si5119   Si       0.83113    0.50249    0.18844    1.000
    Si5120   Si       0.78624    0.53333    0.15131    1.000
    Si5121   Si       0.76470    0.53737    0.22164    1.000
    Si5122   Si       0.88237    0.52295    0.24414    1.000
    N5123    N        0.94527    0.48457    0.12739    1.000
    Si5124   Si       0.94417    0.52600    0.21041    1.000
    N5125    N        0.87033    0.50409    0.20724    1.000
    N5126    N        0.98320    0.52699    0.22697    1.000
    N5127    N        0.93491    0.48415    0.19640    1.000
    N5128    N        0.92595    0.53389    0.24886    1.000
    N5129    N        0.81633    0.52072    0.28655    1.000
    Si5130   Si       0.85201    0.51286    0.31033    1.000
    Si5131   Si       0.77132    0.51390    0.35876    1.000
    Si5132   Si       0.80623    0.49407    0.25509    1.000
    N5133    N        0.88098    0.49942    0.28160    1.000
    N5134    N        0.95982    0.49715    0.29734    1.000
    Si5135   Si       0.97559    0.52836    0.27038    1.000
    N5136    N        0.87652    0.48920    0.47189    1.000
    N5137    N        0.96184    0.48706    0.38574    1.000
    N5138    N        0.76084    0.53678    0.46351    1.000
    Si5139   Si       0.84488    0.51600    0.38267    1.000
    N5140    N        0.80553    0.49762    0.38274    1.000
    Si5141   Si       0.83741    0.50624    0.45998    1.000
    N5142    N        0.85533    0.52548    0.42494    1.000
    N5143    N        0.74577    0.52746    0.39329    1.000
    N5144    N        0.82864    0.53512    0.49031    1.000
    Si5145   Si       0.92139    0.50704    0.37810    1.000
    Si5146   Si       0.90368    0.51770    0.49483    1.000
    N5147    N        0.94202    0.50695    0.48426    1.000
    N5148    N        0.92119    0.52716    0.42210    1.000
    Si5149   Si       0.95755    0.53006    0.44926    1.000
    Si5150   Si       0.89052    0.49374    0.42938    1.000
    N5151    N        0.88173    0.48784    0.38526    1.000
    N5152    N        0.80513    0.49892    0.60060    1.000
    Si5153   Si       0.84623    0.52239    0.52920    1.000
    Si5154   Si       0.83159    0.53246    0.59808    1.000
    N5155    N        0.82570    0.48472    0.53502    1.000
    N5156    N        0.87448    0.51684    0.60480    1.000
    Si5157   Si       0.90642    0.50966    0.57315    1.000
    N5158    N        0.88737    0.51611    0.53431    1.000
    Si5159   Si       0.98183    0.52200    0.59528    1.000
    N5160    N        0.94469    0.53257    0.57419    1.000
    Si5161   Si       0.78330    0.49096    0.63692    1.000
    N5162    N        0.76179    0.52221    0.65598    1.000
    Si5163   Si       0.83854    0.48924    0.72081    1.000
    N5164    N        0.79579    0.49983    0.73254    1.000
    N5165    N        0.85724    0.48981    0.68244    1.000
    N5166    N        0.85061    0.53155    0.73500    1.000
    N5167    N        0.91641    0.48733    0.64716    1.000
    Si5168   Si       0.95584    0.49777    0.66179    1.000
    N5169    N        0.98224    0.49043    0.62528    1.000
    Si5170   Si       0.88036    0.51233    0.64991    1.000
    N5171    N        0.78469    0.50478    0.85480    1.000
    Si5172   Si       0.78875    0.49741    0.81235    1.000
    N5173    N        0.75228    0.50566    0.78733    1.000
    N5174    N        0.81471    0.52820    0.79807    1.000
    Si5175   Si       0.81136    0.53564    0.75518    1.000
    N5176    N        0.98805    0.49018    0.77246    1.000
    N5177    N        0.87311    0.50609    0.82502    1.000
    Si5178   Si       0.96102    0.51527    0.79251    1.000
    N5179    N        0.93851    0.49649    0.82407    1.000
    Si5180   Si       0.90865    0.53325    0.81771    1.000
    Si5181   Si       0.96756    0.50566    0.90630    1.000
    Si5182   Si       0.81401    0.49956    0.95128    1.000
    N5183    N        0.78519    0.51351    0.98177    1.000
    Si5184   Si       0.75008    0.48423    0.98882    1.000
    N5185    N        0.84261    0.48067    0.97970    1.000
    N5186    N        0.82765    0.53699    0.93591    1.000
    N5187    N        0.76320    0.53644    0.91137    1.000
    N5188    N        0.93747    0.53693    0.91917    1.000
    N5189    N        0.88919    0.50213    0.88556    1.000
    N5190    N        0.91430    0.50504    0.97807    1.000
    Si5191   Si       0.82143    0.57372    0.05797    1.000
    Si5192   Si       0.76560    0.55410    0.07431    1.000
    N5193    N        0.79094    0.54721    0.03758    1.000
    N5194    N        0.84036    0.54660    0.08710    1.000
    Si5195   Si       0.76109    0.54548    0.00340    1.000
    N5196    N        0.84507    0.59705    0.03038    1.000
    N5197    N        0.78436    0.59483    0.07888    1.000
    Si5198   Si       0.98139    0.56281    0.07129    1.000
    Si5199   Si       0.87635    0.56819    0.01756    1.000
    N5200    N        0.89993    0.56756    0.05411    1.000
    N5201    N        0.96365    0.59049    0.04295    1.000
    Si5202   Si       0.90995    0.54113    0.08541    1.000
    N5203    N        0.89483    0.55674    0.12284    1.000
    Si5204   Si       0.97517    0.58797    0.00032    1.000
    Si5205   Si       0.91511    0.57894    0.15535    1.000
    Si5206   Si       0.85115    0.55615    0.12804    1.000
    N5207    N        0.76592    0.55500    0.18141    1.000
    Si5208   Si       0.74415    0.59302    0.17360    1.000
    N5209    N        0.83209    0.59392    0.13180    1.000
    Si5210   Si       0.96337    0.59495    0.19295    1.000
    N5211    N        0.86485    0.56241    0.23973    1.000
    N5212    N        0.93871    0.55960    0.18571    1.000
    N5213    N        0.88081    0.59472    0.17595    1.000
    Si5214   Si       0.79313    0.55534    0.29282    1.000
    Si5215   Si       0.77288    0.58468    0.35988    1.000
    N5216    N        0.77568    0.55017    0.33327    1.000
    N5217    N        0.76561    0.55921    0.25892    1.000
    N5218    N        0.81783    0.59004    0.29202    1.000
    Si5219   Si       0.85611    0.58809    0.27464    1.000
    N5220    N        0.85420    0.53859    0.34786    1.000
    Si5221   Si       0.88724    0.56795    0.34194    1.000
    N5222    N        0.96751    0.57040    0.28913    1.000
    N5223    N        0.89154    0.57413    0.29886    1.000
    Si5224   Si       0.92613    0.57262    0.27137    1.000
    N5225    N        0.92268    0.54649    0.35833    1.000
    Si5226   Si       0.94846    0.57803    0.37304    1.000
    Si5227   Si       0.76297    0.55658    0.42319    1.000
    N5228    N        0.79373    0.57317    0.39752    1.000
    Si5229   Si       0.79338    0.55774    0.48529    1.000
    N5230    N        0.80748    0.59109    0.45950    1.000
    Si5231   Si       0.82447    0.59591    0.41865    1.000
    N5232    N        0.86856    0.59089    0.41895    1.000
    N5233    N        0.96052    0.57315    0.46220    1.000
    N5234    N        0.89727    0.55784    0.47659    1.000
    Si5235   Si       0.92971    0.58622    0.48827    1.000
    N5236    N        0.98255    0.56750    0.39723    1.000
    Si5237   Si       0.88812    0.55549    0.43432    1.000
    N5238    N        0.77763    0.57176    0.52407    1.000
    Si5239   Si       0.81021    0.58773    0.54828    1.000
    N5240    N        0.83106    0.55228    0.55978    1.000
    N5241    N        0.75119    0.57800    0.61663    1.000
    Si5242   Si       0.95520    0.57567    0.56844    1.000
    N5243    N        0.93423    0.58798    0.53171    1.000
    N5244    N        0.98660    0.56002    0.62032    1.000
    N5245    N        0.82088    0.55521    0.63478    1.000
    Si5246   Si       0.77902    0.56139    0.64797    1.000
    N5247    N        0.77408    0.58662    0.68129    1.000
    Si5248   Si       0.85626    0.58012    0.65001    1.000
    Si5249   Si       0.76310    0.59317    0.72189    1.000
    N5250    N        0.84396    0.59353    0.68998    1.000
    Si5251   Si       0.86317    0.57283    0.72234    1.000
    N5252    N        0.90743    0.57552    0.71912    1.000
    N5253    N        0.97238    0.57469    0.73494    1.000
    Si5254   Si       0.92507    0.56985    0.68054    1.000
    N5255    N        0.89122    0.55381    0.65886    1.000
    N5256    N        0.95448    0.53704    0.67813    1.000
    N5257    N        0.76176    0.57773    0.85404    1.000
    N5258    N        0.82564    0.55370    0.86578    1.000
    N5259    N        0.79029    0.57305    0.75070    1.000
    Si5260   Si       0.78297    0.54463    0.87231    1.000
    Si5261   Si       0.84369    0.53771    0.82968    1.000
    N5262    N        0.98637    0.54590    0.81383    1.000
    N5263    N        0.87532    0.56642    0.81553    1.000
    Si5264   Si       0.97212    0.55772    0.85327    1.000
    N5265    N        0.92891    0.55347    0.85430    1.000
    Si5266   Si       0.93244    0.57395    0.75370    1.000
    Si5267   Si       0.83977    0.56755    0.90622    1.000
    Si5268   Si       0.78662    0.55894    0.94047    1.000
    N5269    N        0.76332    0.57713    0.97338    1.000
    N5270    N        0.80624    0.59343    0.92071    1.000
    N5271    N        0.88228    0.57941    0.90643    1.000
    Si5272   Si       0.90625    0.54206    0.88952    1.000
    Si5273   Si       0.92743    0.54306    0.96226    1.000
    N5274    N        0.96645    0.55021    0.97991    1.000
    N5275    N        0.90161    0.57201    0.98209    1.000
    N5276    N        0.92677    0.53752    0.77781    1.000
    Si5277   Si       0.76663    0.62950    0.05862    1.000
    Si5278   Si       0.79811    0.61377    0.11621    1.000
    Si5279   Si       0.86087    0.63809    0.02732    1.000
    N5280    N        0.74174    0.61917    0.02493    1.000
    N5281    N        0.74255    0.65260    0.08581    1.000
    N5282    N        0.86544    0.65201    0.06798    1.000
    N5283    N        0.88933    0.64755    0.13152    1.000
    Si5284   Si       0.92153    0.60447    0.05038    1.000
    Si5285   Si       0.97381    0.62442    0.07150    1.000
    N5286    N        0.90075    0.62343    0.01790    1.000
    N5287    N        0.93186    0.63630    0.07862    1.000
    N5288    N        0.83789    0.65555    0.17403    1.000
    N5289    N        0.76347    0.61450    0.14231    1.000
    Si5290   Si       0.85585    0.62416    0.15382    1.000
    Si5291   Si       0.74186    0.65112    0.13008    1.000
    N5292    N        0.74037    0.61210    0.21364    1.000
    Si5293   Si       0.88303    0.59560    0.21977    1.000
    N5294    N        0.94463    0.61236    0.15237    1.000
    N5295    N        0.97031    0.63567    0.20956    1.000
    Si5296   Si       0.92388    0.64969    0.15955    1.000
    N5297    N        0.90424    0.65379    0.19895    1.000
    Si5298   Si       0.93181    0.64141    0.23078    1.000
    N5299    N        0.79829    0.65628    0.04478    1.000
    N5300    N        0.92380    0.59859    0.23778    1.000
    N5301    N        0.79150    0.62129    0.34317    1.000
    Si5302   Si       0.79805    0.62686    0.30055    1.000
    N5303    N        0.75928    0.62760    0.28066    1.000
    Si5304   Si       0.74618    0.59762    0.25433    1.000
    N5305    N        0.91654    0.62703    0.48576    1.000
    N5306    N        0.96415    0.60616    0.34421    1.000
    N5307    N        0.88402    0.60778    0.35813    1.000
    Si5308   Si       0.95578    0.64835    0.35210    1.000
    Si5309   Si       0.88438    0.64846    0.34298    1.000
    Si5310   Si       0.89439    0.62270    0.40141    1.000
    N5311    N        0.76208    0.63805    0.48157    1.000
    Si5312   Si       0.80495    0.62651    0.48443    1.000
    N5313    N        0.81946    0.63870    0.40629    1.000
    N5314    N        0.88543    0.65755    0.42700    1.000
    N5315    N        0.93406    0.60485    0.40693    1.000
    Si5316   Si       0.97116    0.59761    0.42832    1.000
    N5317    N        0.86580    0.62280    0.25114    1.000
    Si5318   Si       0.75968    0.61482    0.59548    1.000
    N5319    N        0.82309    0.62229    0.52602    1.000
    Si5320   Si       0.84716    0.64861    0.55321    1.000
    N5321    N        0.79921    0.60694    0.58470    1.000
    N5322    N        0.74463    0.64608    0.62153    1.000
    N5323    N        0.88511    0.63049    0.55922    1.000
    Si5324   Si       0.91907    0.63078    0.52939    1.000
    Si5325   Si       0.90032    0.62228    0.59905    1.000
    N5326    N        0.93958    0.60570    0.59548    1.000
    Si5327   Si       0.95789    0.64981    0.58700    1.000
    Si5328   Si       0.80691    0.61456    0.68525    1.000
    N5329    N        0.80548    0.64618    0.65478    1.000
    N5330    N        0.78969    0.63062    0.72344    1.000
    Si5331   Si       0.84307    0.65139    0.63257    1.000
    N5332    N        0.86836    0.61415    0.62705    1.000
    N5333    N        0.97764    0.64316    0.72520    1.000
    Si5334   Si       0.94762    0.64397    0.69101    1.000
    N5335    N        0.94716    0.60762    0.66688    1.000
    Si5336   Si       0.96829    0.59772    0.63097    1.000
    N5337    N        0.99264    0.63157    0.61085    1.000
    N5338    N        0.79955    0.63729    0.78995    1.000
    Si5339   Si       0.80937    0.61176    0.75747    1.000
    N5340    N        0.74426    0.65045    0.83967    1.000
    Si5341   Si       0.82973    0.65360    0.81566    1.000
    N5342    N        0.94428    0.63151    0.91029    1.000
    Si5343   Si       0.76170    0.65753    0.80119    1.000
    N5344    N        0.85246    0.59983    0.75815    1.000
    N5345    N        0.81388    0.65553    0.85644    1.000
    N5346    N        0.86723    0.63474    0.81584    1.000
    Si5347   Si       0.94968    0.63610    0.79630    1.000
    N5348    N        0.93421    0.63679    0.83559    1.000
    N5349    N        0.92144    0.60945    0.77582    1.000
    Si5350   Si       0.96073    0.63444    0.86970    1.000
    Si5351   Si       0.87951    0.60359    0.79112    1.000
    Si5352   Si       0.96927    0.64687    0.94511    1.000
    Si5353   Si       0.79752    0.63511    0.93152    1.000
    Si5354   Si       0.75120    0.61978    0.98261    1.000
    N5355    N        0.78448    0.64336    0.97384    1.000
    N5356    N        0.76538    0.65143    0.90671    1.000
    Si5357   Si       0.89903    0.62132    0.90928    1.000
    N5358    N        0.95543    0.61984    0.97629    1.000
    Si5359   Si       0.91293    0.61535    0.97748    1.000
    N5360    N        0.89001    0.63726    0.94984    1.000
    N5361    N        0.88259    0.65075    0.88127    1.000
    Si5362   Si       0.82608    0.67072    0.07614    1.000
    Si5363   Si       0.80346    0.66956    0.00290    1.000
    N5364    N        0.82884    0.71323    0.07583    1.000
    N5365    N        0.94889    0.68578    0.15930    1.000
    N5366    N        0.81196    0.65450    0.11245    1.000
    N5367    N        0.96839    0.69837    0.02297    1.000
    N5368    N        0.97143    0.69354    0.09526    1.000
    N5369    N        0.90242    0.70759    0.09185    1.000
    Si5370   Si       0.90008    0.66267    0.09114    1.000
    Si5371   Si       0.80795    0.67917    0.14960    1.000
    N5372    N        0.76464    0.68217    0.15127    1.000
    Si5373   Si       0.74475    0.70748    0.18020    1.000
    N5374    N        0.85979    0.68685    0.23208    1.000
    N5375    N        0.88581    0.71359    0.16742    1.000
    Si5376   Si       0.86864    0.68058    0.19076    1.000
    Si5377   Si       0.98664    0.68534    0.13473    1.000
    Si5378   Si       0.98235    0.67658    0.22878    1.000
    N5379    N        0.79521    0.71237    0.00846    1.000
    Si5380   Si       0.83428    0.69436    0.31911    1.000
    N5381    N        0.84685    0.67084    0.35293    1.000
    N5382    N        0.76275    0.69614    0.29245    1.000
    N5383    N        0.77864    0.68463    0.36857    1.000
    N5384    N        0.82452    0.65885    0.29183    1.000
    Si5385   Si       0.86184    0.66198    0.26809    1.000
    Si5386   Si       0.76990    0.71045    0.33338    1.000
    N5387    N        0.86300    0.70906    0.29093    1.000
    Si5388   Si       0.92998    0.68345    0.29378    1.000
    N5389    N        0.96365    0.67057    0.31548    1.000
    N5390    N        0.94351    0.67709    0.25171    1.000
    N5391    N        0.91579    0.66044    0.36964    1.000
    Si5392   Si       0.84229    0.66713    0.43125    1.000
    N5393    N        0.76091    0.68711    0.43841    1.000
    Si5394   Si       0.75911    0.68308    0.47999    1.000
    N5395    N        0.82446    0.70475    0.41995    1.000
    Si5396   Si       0.78407    0.70434    0.40627    1.000
    Si5397   Si       0.83120    0.69185    0.49710    1.000
    N5398    N        0.83106    0.65733    0.47148    1.000
    Si5399   Si       0.98515    0.70841    0.38556    1.000
    Si5400   Si       0.91088    0.66436    0.46534    1.000
    N5401    N        0.98150    0.70098    0.49069    1.000
    N5402    N        0.94050    0.68370    0.43823    1.000
    N5403    N        0.98331    0.66394    0.37955    1.000
    Si5404   Si       0.91271    0.68827    0.40545    1.000
    Si5405   Si       0.96730    0.71579    0.45173    1.000
    N5406    N        0.91408    0.69355    0.49985    1.000
    Si5407   Si       0.80893    0.65311    0.36795    1.000
    N5408    N        0.89664    0.65650    0.30097    1.000
    N5409    N        0.85265    0.69024    0.53501    1.000
    N5410    N        0.83908    0.66659    0.59269    1.000
    Si5411   Si       0.84379    0.70753    0.57715    1.000
    N5412    N        0.79222    0.70584    0.50600    1.000
    N5413    N        0.73973    0.70335    0.57688    1.000
    N5414    N        0.95032    0.65672    0.54476    1.000
    N5415    N        0.97830    0.68778    0.59760    1.000
    Si5416   Si       0.95107    0.69375    0.52195    1.000
    N5417    N        0.91853    0.66475    0.60715    1.000
    N5418    N        0.96797    0.67212    0.66621    1.000
    Si5419   Si       0.76018    0.66475    0.72888    1.000
    N5420    N        0.77147    0.70443    0.73420    1.000
    N5421    N        0.84592    0.67652    0.72761    1.000
    N5422    N        0.75964    0.70716    0.63806    1.000
    Si5423   Si       0.76594    0.66662    0.65290    1.000
    N5424    N        0.74152    0.66229    0.68913    1.000
    Si5425   Si       0.87649    0.68758    0.69633    1.000
    Si5426   Si       0.95865    0.71377    0.67823    1.000
    Si5427   Si       0.89725    0.69674    0.62639    1.000
    N5428    N        0.86789    0.67893    0.65385    1.000
    Si5429   Si       0.92794    0.68311    0.74345    1.000
    N5430    N        0.91170    0.66470    0.70777    1.000
    N5431    N        0.76690    0.69965    0.80160    1.000
    N5432    N        0.84506    0.69366    0.80854    1.000
    Si5433   Si       0.85073    0.69757    0.76381    1.000
    Si5434   Si       0.77306    0.66505    0.86707    1.000
    N5435    N        0.76821    0.70988    0.86902    1.000
    Si5436   Si       0.93963    0.70820    0.86324    1.000
    N5437    N        0.90949    0.69838    0.83437    1.000
    N5438    N        0.95341    0.67548    0.77752    1.000
    N5439    N        0.89388    0.70139    0.76404    1.000
    N5440    N        0.96983    0.68003    0.87045    1.000
    Si5441   Si       0.84486    0.67018    0.88397    1.000
    N5442    N        0.83132    0.66212    0.92373    1.000
    N5443    N        0.84805    0.71359    0.87904    1.000
    Si5444   Si       0.86127    0.66899    0.95523    1.000
    N5445    N        0.95664    0.68741    0.95605    1.000
    N5446    N        0.86941    0.71372    0.94859    1.000
    Si5447   Si       0.89706    0.65765    0.83905    1.000
    N5448    N        0.84761    0.66114    0.99496    1.000
    Si5449   Si       0.79588    0.72827    0.04984    1.000
    N5450    N        0.75952    0.72028    0.07205    1.000
    N5451    N        0.77628    0.76909    0.11606    1.000
    N5452    N        0.80848    0.77145    0.05046    1.000
    Si5453   Si       0.74308    0.74142    0.10943    1.000
    Si5454   Si       0.89928    0.77044    0.21462    1.000
    N5455    N        0.86568    0.75741    0.12009    1.000
    Si5456   Si       0.86656    0.73094    0.08466    1.000
    N5457    N        0.94790    0.75419    0.06239    1.000
    Si5458   Si       0.91204    0.76600    0.03755    1.000
    N5459    N        0.87138    0.76640    0.05698    1.000
    Si5460   Si       0.94111    0.72474    0.09405    1.000
    N5461    N        0.90987    0.73720    0.00430    1.000
    Si5462   Si       0.80194    0.73499    0.20492    1.000
    Si5463   Si       0.85429    0.74260    0.16011    1.000
    N5464    N        0.82017    0.71757    0.16907    1.000
    N5465    N        0.81824    0.74210    0.24432    1.000
    N5466    N        0.76530    0.71511    0.21686    1.000
    N5467    N        0.93353    0.74745    0.20083    1.000
    N5468    N        0.86303    0.77228    0.19099    1.000
    N5469    N        0.94981    0.74349    0.13124    1.000
    Si5470   Si       0.92937    0.72352    0.16461    1.000
    Si5471   Si       0.97611    0.75823    0.20870    1.000
    N5472    N        0.81120    0.72882    0.33227    1.000
    Si5473   Si       0.75489    0.72450    0.25802    1.000
    Si5474   Si       0.82951    0.76969    0.33209    1.000
    Si5475   Si       0.85709    0.72623    0.25024    1.000
    Si5476   Si       0.92015    0.75353    0.40914    1.000
    Si5477   Si       0.89249    0.74180    0.29809    1.000
    Si5478   Si       0.95102    0.73916    0.34204    1.000
    N5479    N        0.93022    0.72388    0.30764    1.000
    N5480    N        0.88780    0.75544    0.25522    1.000
    N5481    N        0.87252    0.76929    0.32493    1.000
    N5482    N        0.94707    0.75428    0.44398    1.000
    N5483    N        0.77578    0.74524    0.39469    1.000
    Si5484   Si       0.85066    0.73488    0.43658    1.000
    N5485    N        0.85488    0.72382    0.47890    1.000
    N5486    N        0.83532    0.77356    0.42801    1.000
    N5487    N        0.94229    0.72392    0.38412    1.000
    N5488    N        0.88809    0.72386    0.41745    1.000
    N5489    N        0.75201    0.75076    0.52809    1.000
    Si5490   Si       0.79484    0.74169    0.53127    1.000
    N5491    N        0.80536    0.72705    0.57204    1.000
    Si5492   Si       0.77204    0.72513    0.59980    1.000
    N5493    N        0.76311    0.76407    0.61568    1.000
    N5494    N        0.87533    0.72362    0.60165    1.000
    N5495    N        0.89035    0.75369    0.53295    1.000
    N5496    N        0.95565    0.72957    0.54785    1.000
    Si5497   Si       0.93093    0.76470    0.54649    1.000
    Si5498   Si       0.88672    0.76810    0.59992    1.000
    Si5499   Si       0.84560    0.75631    0.71840    1.000
    Si5500   Si       0.77404    0.74492    0.71664    1.000
    N5501    N        0.80832    0.76400    0.69688    1.000
    N5502    N        0.92415    0.71902    0.65440    1.000
    N5503    N        0.87530    0.73195    0.69541    1.000
    Si5504   Si       0.90370    0.75282    0.67156    1.000
    N5505    N        0.95276    0.71239    0.72124    1.000
    N5506    N        0.98361    0.74992    0.67071    1.000
    Si5507   Si       0.88144    0.71767    0.51262    1.000
    N5508    N        0.81097    0.74669    0.82783    1.000
    Si5509   Si       0.77107    0.72968    0.83076    1.000
    N5510    N        0.83802    0.73952    0.75608    1.000
    Si5511   Si       0.84770    0.72678    0.83837    1.000
    Si5512   Si       0.74837    0.72590    0.77358    1.000
    Si5513   Si       0.83457    0.76090    0.79289    1.000
    N5514    N        0.75599    0.76633    0.75195    1.000
    N5515    N        0.87282    0.75543    0.81589    1.000
    N5516    N        0.94941    0.75005    0.84809    1.000
    N5517    N        0.93745    0.74753    0.78351    1.000
    Si5518   Si       0.90603    0.72380    0.80008    1.000
    Si5519   Si       0.96782    0.73773    0.75298    1.000
    Si5520   Si       0.77054    0.72511    0.90955    1.000
    Si5521   Si       0.84202    0.73148    0.91896    1.000
    Si5522   Si       0.80612    0.74408    0.97685    1.000
    N5523    N        0.80371    0.72643    0.93658    1.000
    N5524    N        0.84532    0.75578    0.99284    1.000
    N5525    N        0.76324    0.76813    0.90573    1.000
    Si5526   Si       0.88174    0.74874    0.97287    1.000
    N5527    N        0.93559    0.72795    0.90265    1.000
    Si5528   Si       0.96644    0.72252    0.93172    1.000
    N5529    N        0.96005    0.74798    0.96510    1.000
    Si5530   Si       0.93351    0.76731    0.88392    1.000
    Si5531   Si       0.94602    0.71409    0.99127    1.000
    N5532    N        0.83168    0.81603    0.09895    1.000
    Si5533   Si       0.79880    0.79204    0.08703    1.000
    N5534    N        0.84263    0.82110    0.00433    1.000
    Si5535   Si       0.84252    0.78251    0.02702    1.000
    N5536    N        0.76902    0.82445    0.07385    1.000
    Si5537   Si       0.74329    0.78210    0.99930    1.000
    Si5538   Si       0.86836    0.79338    0.09366    1.000
    N5539    N        0.91245    0.80837    0.02690    1.000
    N5540    N        0.90244    0.82360    0.09476    1.000
    Si5541   Si       0.83126    0.80517    0.19516    1.000
    N5542    N        0.82073    0.80999    0.23618    1.000
    Si5543   Si       0.76469    0.77900    0.15556    1.000
    N5544    N        0.80959    0.83078    0.16371    1.000
    N5545    N        0.98063    0.78174    0.24454    1.000
    N5546    N        0.92043    0.80826    0.21928    1.000
    Si5547   Si       0.95442    0.81611    0.24691    1.000
    N5548    N        0.73926    0.81459    0.15650    1.000
    N5549    N        0.79308    0.77490    0.18812    1.000
    N5550    N        0.81231    0.79239    0.30053    1.000
    N5551    N        0.76415    0.80785    0.34908    1.000
    Si5552   Si       0.80237    0.78022    0.26090    1.000
    Si5553   Si       0.78531    0.82307    0.31292    1.000
    N5554    N        0.82996    0.79306    0.36904    1.000
    Si5555   Si       0.95743    0.81668    0.32250    1.000
    Si5556   Si       0.89874    0.79350    0.34954    1.000
    N5557    N        0.93978    0.78077    0.34380    1.000
    N5558    N        0.93571    0.82003    0.28490    1.000
    N5559    N        0.76097    0.80043    0.48282    1.000
    N5560    N        0.77530    0.81025    0.41845    1.000
    Si5561   Si       0.85477    0.80197    0.40306    1.000
    Si5562   Si       0.80089    0.78037    0.39999    1.000
    Si5563   Si       0.74927    0.82947    0.38317    1.000
    N5564    N        0.97341    0.82052    0.41708    1.000
    N5565    N        0.92990    0.81923    0.46207    1.000
    N5566    N        0.89454    0.78582    0.39339    1.000
    Si5567   Si       0.96471    0.79401    0.45115    1.000
    N5568    N        0.89553    0.83290    0.33506    1.000
    N5569    N        0.76055    0.76998    0.26163    1.000
    Si5570   Si       0.79430    0.81400    0.50671    1.000
    Si5571   Si       0.84208    0.82484    0.60163    1.000
    N5572    N        0.85499    0.79015    0.57831    1.000
    N5573    N        0.81847    0.77843    0.52362    1.000
    Si5574   Si       0.85981    0.78628    0.53433    1.000
    N5575    N        0.75948    0.83054    0.59179    1.000
    Si5576   Si       0.77727    0.80414    0.62172    1.000
    N5577    N        0.88195    0.81812    0.51288    1.000
    Si5578   Si       0.94585    0.82127    0.58881    1.000
    N5579    N        0.95057    0.79795    0.52521    1.000
    N5580    N        0.92316    0.78486    0.58587    1.000
    Si5581   Si       0.92406    0.82474    0.50449    1.000
    N5582    N        0.98799    0.81512    0.58344    1.000
    N5583    N        0.81855    0.80902    0.63651    1.000
    Si5584   Si       0.80200    0.80231    0.67719    1.000
    N5585    N        0.76130    0.80991    0.66209    1.000
    N5586    N        0.80174    0.82715    0.71345    1.000
    Si5587   Si       0.83191    0.82172    0.74530    1.000
    N5588    N        0.86216    0.79606    0.72632    1.000
    N5589    N        0.98535    0.81951    0.68531    1.000
    Si5590   Si       0.90231    0.80930    0.71586    1.000
    N5591    N        0.92783    0.77841    0.69967    1.000
    N5592    N        0.98675    0.77663    0.73956    1.000
    Si5593   Si       0.97039    0.78158    0.69931    1.000
    N5594    N        0.88925    0.77964    0.64120    1.000
    Si5595   Si       0.90053    0.82193    0.64517    1.000
    N5596    N        0.94170    0.83385    0.63148    1.000
    N5597    N        0.81252    0.79519    0.77430    1.000
    N5598    N        0.76863    0.80634    0.82085    1.000
    N5599    N        0.84733    0.81787    0.83167    1.000
    Si5600   Si       0.76788    0.79684    0.77900    1.000
    Si5601   Si       0.80618    0.82781    0.83497    1.000
    N5602    N        0.91957    0.80983    0.81527    1.000
    Si5603   Si       0.88377    0.79427    0.83504    1.000
    Si5604   Si       0.94813    0.77549    0.81400    1.000
    Si5605   Si       0.80576    0.82020    0.97776    1.000
    Si5606   Si       0.79862    0.79721    0.90655    1.000
    N5607    N        0.80190    0.82674    0.93724    1.000
    N5608    N        0.78385    0.78047    0.98267    1.000
    N5609    N        0.79145    0.82966    0.87652    1.000
    N5610    N        0.83775    0.77742    0.91328    1.000
    Si5611   Si       0.94205    0.78457    0.95054    1.000
    N5612    N        0.95685    0.79394    0.90990    1.000
    Si5613   Si       0.87728    0.79965    0.91346    1.000
    N5614    N        0.96306    0.81032    0.97845    1.000
    N5615    N        0.89923    0.77824    0.94778    1.000
    N5616    N        0.89594    0.78407    0.87639    1.000
    N5617    N        0.98622    0.79193    0.80676    1.000
    Si5618   Si       0.78062    0.86785    0.07354    1.000
    N5619    N        0.79520    0.87559    0.11334    1.000
    Si5620   Si       0.80485    0.88332    0.00880    1.000
    N5621    N        0.81425    0.87972    0.05006    1.000
    Si5622   Si       0.86851    0.85756    0.00571    1.000
    N5623    N        0.95043    0.85534    0.03908    1.000
    N5624    N        0.88030    0.86911    0.04690    1.000
    N5625    N        0.93856    0.88169    0.11014    1.000
    Si5626   Si       0.91277    0.84178    0.05643    1.000
    Si5627   Si       0.93839    0.83594    0.00170    1.000
    Si5628   Si       0.82702    0.84712    0.12776    1.000
    Si5629   Si       0.76966    0.84148    0.17423    1.000
    N5630    N        0.76281    0.88466    0.17040    1.000
    Si5631   Si       0.83944    0.84665    0.24131    1.000
    N5632    N        0.86074    0.84228    0.20407    1.000
    N5633    N        0.75653    0.83202    0.21617    1.000
    N5634    N        0.86469    0.86819    0.13305    1.000
    Si5635   Si       0.76878    0.86110    0.24667    1.000
    N5636    N        0.91794    0.88056    0.21898    1.000
    Si5637   Si       0.95809    0.86908    0.14951    1.000
    Si5638   Si       0.90381    0.85674    0.12347    1.000
    N5639    N        0.97972    0.85179    0.23854    1.000
    Si5640   Si       0.90285    0.84249    0.19990    1.000
    N5641    N        0.92174    0.84692    0.16209    1.000
    Si5642   Si       0.95250    0.88632    0.24655    1.000
    N5643    N        0.80682    0.86202    0.32338    1.000
    Si5644   Si       0.83072    0.87937    0.29220    1.000
    N5645    N        0.75655    0.83558    0.28119    1.000
    N5646    N        0.80971    0.87371    0.25362    1.000
    Si5647   Si       0.78447    0.88778    0.35262    1.000
    N5648    N        0.86361    0.85355    0.27600    1.000
    N5649    N        0.95584    0.88429    0.44198    1.000
    Si5650   Si       0.98631    0.88299    0.35009    1.000
    N5651    N        0.95706    0.85140    0.34855    1.000
    Si5652   Si       0.90292    0.84724    0.29437    1.000
    Si5653   Si       0.91605    0.85937    0.36292    1.000
    N5654    N        0.92619    0.88254    0.28526    1.000
    Si5655   Si       0.93783    0.84613    0.43082    1.000
    N5656    N        0.87535    0.87395    0.46262    1.000
    N5657    N        0.77300    0.86808    0.45593    1.000
    N5658    N        0.77466    0.86719    0.38895    1.000
    Si5659   Si       0.80253    0.83723    0.44276    1.000
    N5660    N        0.83757    0.84011    0.41680    1.000
    Si5661   Si       0.75859    0.87829    0.49699    1.000
    Si5662   Si       0.85832    0.85108    0.49575    1.000
    N5663    N        0.82412    0.82921    0.48008    1.000
    N5664    N        0.90574    0.85515    0.40322    1.000
    Si5665   Si       0.86715    0.87095    0.41945    1.000
    N5666    N        0.82305    0.85645    0.57949    1.000
    Si5667   Si       0.78148    0.86090    0.56902    1.000
    N5668    N        0.77999    0.85138    0.52671    1.000
    N5669    N        0.86145    0.88351    0.52290    1.000
    Si5670   Si       0.84513    0.89054    0.56236    1.000
    N5671    N        0.92847    0.85569    0.57389    1.000
    N5672    N        0.93572    0.86802    0.50699    1.000
    Si5673   Si       0.90667    0.87708    0.60590    1.000
    Si5674   Si       0.94642    0.88420    0.54613    1.000
    N5675    N        0.87928    0.84260    0.61506    1.000
    Si5676   Si       0.76216    0.84286    0.72337    1.000
    N5677    N        0.76444    0.88618    0.71332    1.000
    Si5678   Si       0.96925    0.85025    0.65945    1.000
    Si5679   Si       0.90567    0.87931    0.68638    1.000
    N5680    N        0.94957    0.87783    0.68593    1.000
    N5681    N        0.89384    0.83857    0.68488    1.000
    N5682    N        0.79667    0.86460    0.81197    1.000
    Si5683   Si       0.75570    0.86418    0.79689    1.000
    N5684    N        0.84593    0.85968    0.76050    1.000
    Si5685   Si       0.82787    0.88572    0.79044    1.000
    N5686    N        0.75898    0.83569    0.76577    1.000
    N5687    N        0.96673    0.86048    0.80796    1.000
    Si5688   Si       0.95467    0.87374    0.84895    1.000
    N5689    N        0.90278    0.87585    0.79193    1.000
    Si5690   Si       0.92928    0.84347    0.79048    1.000
    N5691    N        0.91289    0.87481    0.85931    1.000
    N5692    N        0.97560    0.83752    0.86228    1.000
    Si5693   Si       0.88624    0.86961    0.75244    1.000
    N5694    N        0.91317    0.83392    0.74891    1.000
    Si5695   Si       0.78607    0.85953    0.90744    1.000
    N5696    N        0.74876    0.86600    0.93096    1.000
    Si5697   Si       0.74350    0.85490    0.97278    1.000
    N5698    N        0.84335    0.88891    0.99148    1.000
    N5699    N        0.78068    0.85145    0.99381    1.000
    N5700    N        0.87655    0.84197    0.91313    1.000
    Si5701   Si       0.89015    0.88007    0.89838    1.000
    N5702    N        0.90602    0.85903    0.98396    1.000
    Si5703   Si       0.99175    0.87405    0.77350    1.000
    N5704    N        0.84499    0.93854    0.03491    1.000
    Si5705   Si       0.85408    0.90197    0.05981    1.000
    N5706    N        0.77965    0.91637    0.00208    1.000
    N5707    N        0.74782    0.89234    0.06198    1.000
    Si5708   Si       0.74079    0.90928    0.02174    1.000
    N5709    N        0.86790    0.92321    0.09472    1.000
    N5710    N        0.95992    0.92251    0.05538    1.000
    Si5711   Si       0.96928    0.91015    0.09596    1.000
    Si5712   Si       0.98723    0.93670    0.16121    1.000
    Si5713   Si       0.97173    0.89023    0.02742    1.000
    N5714    N        0.82452    0.92715    0.14919    1.000
    Si5715   Si       0.78545    0.90689    0.14115    1.000
    N5716    N        0.76566    0.94644    0.14199    1.000
    Si5717   Si       0.86333    0.91018    0.13472    1.000
    N5718    N        0.88926    0.92958    0.16197    1.000
    Si5719   Si       0.91836    0.91337    0.19164    1.000
    N5720    N        0.92258    0.94518    0.22293    1.000
    N5721    N        0.95711    0.90649    0.16966    1.000
    N5722    N        0.97889    0.92031    0.24199    1.000
    N5723    N        0.83848    0.91873    0.30136    1.000
    N5724    N        0.79418    0.92822    0.36496    1.000
    Si5725   Si       0.86023    0.94879    0.31930    1.000
    N5726    N        0.73835    0.89155    0.25302    1.000
    N5727    N        0.90327    0.89933    0.35060    1.000
    N5728    N        0.96653    0.91698    0.33412    1.000
    Si5729   Si       0.92661    0.91417    0.31709    1.000
    Si5730   Si       0.82421    0.93736    0.39687    1.000
    N5731    N        0.79692    0.92570    0.43139    1.000
    N5732    N        0.85650    0.90992    0.40613    1.000
    N5733    N        0.84058    0.93745    0.48973    1.000
    Si5734   Si       0.76523    0.89574    0.42042    1.000
    Si5735   Si       0.79770    0.94389    0.47416    1.000
    N5736    N        0.74475    0.89053    0.33103    1.000
    N5737    N        0.91969    0.94970    0.39847    1.000
    N5738    N        0.98821    0.94539    0.43012    1.000
    Si5739   Si       0.88812    0.92871    0.38241    1.000
    Si5740   Si       0.87431    0.91098    0.48828    1.000
    N5741    N        0.91294    0.93064    0.48212    1.000
    Si5742   Si       0.94479    0.90132    0.48025    1.000
    N5743    N        0.90348    0.94768    0.30501    1.000
    Si5744   Si       0.79090    0.93212    0.58648    1.000
    N5745    N        0.81978    0.92543    0.55382    1.000
    N5746    N        0.76685    0.89714    0.58885    1.000
    N5747    N        0.93349    0.92520    0.55186    1.000
    N5748    N        0.87806    0.90472    0.58722    1.000
    Si5749   Si       0.97805    0.92274    0.58902    1.000
    Si5750   Si       0.90078    0.94011    0.57413    1.000
    N5751    N        0.94612    0.90702    0.61417    1.000
    N5752    N        0.97884    0.91753    0.50076    1.000
    Si5753   Si       0.96600    0.94465    0.53115    1.000
    N5754    N        0.98588    0.88991    0.56108    1.000
    N5755    N        0.82256    0.92994    0.61830    1.000
    Si5756   Si       0.86481    0.92385    0.62928    1.000
    N5757    N        0.89570    0.89797    0.64832    1.000
    Si5758   Si       0.97272    0.89927    0.71540    1.000
    N5759    N        0.88681    0.90075    0.72075    1.000
    Si5760   Si       0.92932    0.93343    0.64488    1.000
    N5761    N        0.98238    0.93906    0.70415    1.000
    Si5762   Si       0.87687    0.93926    0.70212    1.000
    N5763    N        0.91783    0.94618    0.68531    1.000
    N5764    N        0.76252    0.92379    0.49332    1.000
    N5765    N        0.81137    0.91736    0.76623    1.000
    Si5766   Si       0.83395    0.91010    0.86520    1.000
    N5767    N        0.85110    0.89901    0.82512    1.000
    N5768    N        0.80845    0.94558    0.85216    1.000
    Si5769   Si       0.77330    0.91248    0.74583    1.000
    N5770    N        0.74451    0.90196    0.77681    1.000
    Si5771   Si       0.89447    0.89740    0.82720    1.000
    N5772    N        0.91859    0.93411    0.81383    1.000
    N5773    N        0.96273    0.90101    0.75726    1.000
    Si5774   Si       0.94908    0.93447    0.78259    1.000
    N5775    N        0.96900    0.91086    0.86648    1.000
    Si5776   Si       0.99143    0.94553    0.85279    1.000
    Si5777   Si       0.85490    0.92969    0.99373    1.000
    Si5778   Si       0.78517    0.94035    0.88890    1.000
    N5779    N        0.80023    0.89802    0.89305    1.000
    Si5780   Si       0.94656    0.92051    0.90387    1.000
    N5781    N        0.91849    0.89674    0.92572    1.000
    N5782    N        0.86819    0.91562    0.88725    1.000
    N5783    N        0.89764    0.93209    0.98907    1.000
    Si5784   Si       0.91890    0.89830    0.96965    1.000
    N5785    N        0.98058    0.92849    0.92974    1.000
    N5786    N        0.96039    0.89509    0.98423    1.000
    N5787    N        0.84484    0.98811    0.08048    1.000
    N5788    N        0.78785    0.97975    0.03134    1.000
    Si5789   Si       0.83247    0.98091    0.03940    1.000
    Si5790   Si       0.75438    0.00102    0.05119    1.000
    N5791    N        0.96676    0.99408    0.07515    1.000
    Si5792   Si       0.95146    0.96458    0.04708    1.000
    N5793    N        0.90737    0.96732    0.04727    1.000
    Si5794   Si       0.88318    0.96315    0.08303    1.000
    N5795    N        0.95219    0.97815    0.00548    1.000
    N5796    N        0.90673    0.97953    0.11737    1.000
    Si5797   Si       0.90818    0.97290    0.00532    1.000
    Si5798   Si       0.93987    0.00547    0.11026    1.000
    N5799    N        0.79017    0.99999    0.12331    1.000
    Si5800   Si       0.74822    0.98673    0.12621    1.000
    Si5801   Si       0.81539    0.98394    0.22957    1.000
    N5802    N        0.84588    0.99155    0.15191    1.000
    Si5803   Si       0.80686    0.96830    0.15366    1.000
    N5804    N        0.79379    0.97303    0.19418    1.000
    N5805    N        0.85132    0.96243    0.23568    1.000
    Si5806   Si       0.75251    0.95804    0.19008    1.000
    N5807    N        0.74473    0.95986    0.23406    1.000
    Si5808   Si       0.96409    0.95805    0.22605    1.000
    N5809    N        0.98004    0.97071    0.18768    1.000
    Si5810   Si       0.88655    0.97434    0.15598    1.000
    N5811    N        0.89396    0.99539    0.19168    1.000
    Si5812   Si       0.89373    0.97649    0.23012    1.000
    N5813    N        0.97774    0.94973    0.12003    1.000
    N5814    N        0.79445    0.99281    0.26807    1.000
    N5815    N        0.85411    0.99017    0.30584    1.000
    N5816    N        0.79828    0.99581    0.34100    1.000
    Si5817   Si       0.75271    0.99319    0.26052    1.000
    Si5818   Si       0.77124    0.96908    0.36369    1.000
    Si5819   Si       0.83494    0.99221    0.36497    1.000
    N5820    N        0.85748    0.95402    0.36257    1.000
    Si5821   Si       0.81493    0.00846    0.30238    1.000
    Si5822   Si       0.89772    0.99162    0.30242    1.000
    N5823    N        0.97625    0.98773    0.31887    1.000
    N5824    N        0.90477    0.00496    0.26207    1.000
    Si5825   Si       0.92029    0.97349    0.48199    1.000
    N5826    N        0.97856    0.98963    0.25045    1.000
    N5827    N        0.97629    0.99031    0.38438    1.000
    N5828    N        0.93447    0.99510    0.44677    1.000
    Si5829   Si       0.78588    0.00106    0.42386    1.000
    N5830    N        0.81965    0.98114    0.40308    1.000
    N5831    N        0.75363    0.98844    0.39652    1.000
    N5832    N        0.78590    0.98510    0.46637    1.000
    Si5833   Si       0.95499    0.96995    0.41401    1.000
    N5834    N        0.88887    0.99997    0.49493    1.000
    N5835    N        0.77832    0.97120    0.60395    1.000
    N5836    N        0.81685    0.99195    0.52914    1.000
    Si5837   Si       0.83964    0.95685    0.52813    1.000
    Si5838   Si       0.74242    0.99587    0.60227    1.000
    N5839    N        0.87683    0.96739    0.55108    1.000
    N5840    N        0.94960    0.98314    0.51307    1.000
    N5841    N        0.89871    0.95375    0.61683    1.000
    Si5842   Si       0.89398    0.00675    0.53904    1.000
    N5843    N        0.99111    0.95733    0.56115    1.000
    N5844    N        0.84265    0.00006    0.62253    1.000
    Si5845   Si       0.81126    0.96790    0.63485    1.000
    N5846    N        0.79695    0.98015    0.67448    1.000
    Si5847   Si       0.75863    0.97215    0.69575    1.000
    Si5848   Si       0.83729    0.98867    0.69257    1.000
    N5849    N        0.85098    0.96461    0.72709    1.000
    N5850    N        0.85525    0.95311    0.66492    1.000
    Si5851   Si       0.95396    0.00636    0.65212    1.000
    N5852    N        0.76609    0.95232    0.73327    1.000
    Si5853   Si       0.88194    0.98651    0.64419    1.000
    Si5854   Si       0.94741    0.96540    0.71012    1.000
    N5855    N        0.96299    0.96630    0.64181    1.000
    N5856    N        0.95072    0.00720    0.69692    1.000
    Si5857   Si       0.83154    0.97653    0.83169    1.000
    N5858    N        0.85377    0.96517    0.79475    1.000
    N5859    N        0.79848    0.99488    0.76920    1.000
    Si5860   Si       0.75835    0.98886    0.75682    1.000
    Si5861   Si       0.82520    0.95909    0.76137    1.000
    N5862    N        0.87207    0.97663    0.85388    1.000
    Si5863   Si       0.89132    0.96916    0.81445    1.000
    N5864    N        0.93753    0.96502    0.75147    1.000
    N5865    N        0.91563    0.00217    0.80428    1.000
    N5866    N        0.98600    0.94603    0.80852    1.000
    N5867    N        0.75544    0.97496    0.96938    1.000
    Si5868   Si       0.76347    0.98388    0.92804    1.000
    Si5869   Si       0.83515    0.98252    0.94331    1.000
    N5870    N        0.80400    0.96953    0.91697    1.000
    N5871    N        0.82853    0.96046    0.97870    1.000
    Si5872   Si       0.78814    0.95821    0.99425    1.000
    N5873    N        0.74478    0.95375    0.90082    1.000
    N5874    N        0.87478    0.97815    0.92828    1.000
    N5875    N        0.92680    0.95723    0.89224    1.000
    Si5876   Si       0.96902    0.00406    0.97563    1.000
    Si5877   Si       0.95136    0.99401    0.89367    1.000
    Si5878   Si       0.88363    0.95730    0.89071    1.000
    N5879    N        0.89525    0.00643    0.98517    1.000
