# CIF file generated by openbabel 3.1.1, see https://openbabel.org
data_I
_chemical_name_common '3.01-12.aims'
_cell_length_a 39.9042
_cell_length_b 39.9042
_cell_length_c 39.9042
_cell_angle_alpha 90
_cell_angle_beta 90
_cell_angle_gamma 90
loop_
    _atom_site_label
    _atom_site_type_symbol
    _atom_site_fract_x
    _atom_site_fract_y
    _atom_site_fract_z
    _atom_site_occupancy
    N0       N        0.07010    0.04199    0.06534    1.000
    Si1      Si       0.10329    0.02939    0.09045    1.000
    N2       N        0.00859    0.04686    0.03295    1.000
    Si3      Si       0.03482    0.01961    0.05598    1.000
    N4       N        0.14272    0.03761    0.07219    1.000
    N5       N        0.20973    0.02724    0.06450    1.000
    Si6      Si       0.17722    0.02258    0.09514    1.000
    N7       N        0.22159    0.05603    0.00131    1.000
    N8       N        0.15279    0.05599    0.00015    1.000
    N9       N        0.02671    0.05153    0.13209    1.000
    N10      N        0.10587    0.05600    0.12488    1.000
    N11      N        0.02017    0.02881    0.21829    1.000
    Si12     Si       0.05834    0.02147    0.19787    1.000
    N13      N        0.07332    0.06009    0.18398    1.000
    Si14     Si       0.01618    0.06110    0.24678    1.000
    Si15     Si       0.01831    0.00819    0.13222    1.000
    N16      N        0.17756    0.04509    0.13254    1.000
    N17      N        0.15143    0.04384    0.18605    1.000
    Si18     Si       0.14243    0.06502    0.14720    1.000
    Si19     Si       0.14835    0.05058    0.22809    1.000
    N20      N        0.22526    0.03411    0.19325    1.000
    Si21     Si       0.18932    0.02278    0.16983    1.000
    N22      N        0.08781    0.02964    0.29548    1.000
    N23      N        0.02028    0.04272    0.28482    1.000
    N24      N        0.03672    0.04538    0.34714    1.000
    Si25     Si       0.05425    0.05367    0.30869    1.000
    N26      N        0.19845    0.03172    0.34966    1.000
    N27      N        0.22485    0.02932    0.28121    1.000
    Si28     Si       0.22900    0.00928    0.32463    1.000
    N29      N        0.15566    0.01327    0.24811    1.000
    N30      N        0.04168    0.03989    0.45223    1.000
    N31      N        0.08715    0.03516    0.39974    1.000
    Si32     Si       0.01813    0.02599    0.48521    1.000
    Si33     Si       0.06723    0.01219    0.42899    1.000
    Si34     Si       0.15399    0.05887    0.43025    1.000
    N35      N        0.15225    0.02276    0.40580    1.000
    N36      N        0.15504    0.03516    0.46564    1.000
    Si37     Si       0.12450    0.03205    0.37528    1.000
    N38      N        0.05983    0.03003    0.58042    1.000
    Si39     Si       0.06536    0.03840    0.53745    1.000
    N40      N        0.02741    0.05120    0.51931    1.000
    N41      N        0.10229    0.04848    0.51732    1.000
    Si42     Si       0.04701    0.06228    0.60319    1.000
    N43      N        0.17660    0.05496    0.52810    1.000
    Si44     Si       0.17471    0.01955    0.50152    1.000
    Si45     Si       0.13723    0.01728    0.62095    1.000
    N46      N        0.13845    0.06048    0.62238    1.000
    Si47     Si       0.07088    0.02154    0.66320    1.000
    N48      N        0.10734    0.03762    0.68308    1.000
    N49      N        0.06965    0.06082    0.63959    1.000
    N50      N        0.03254    0.00994    0.68021    1.000
    Si51     Si       0.11480    0.01193    0.71855    1.000
    Si52     Si       0.11006    0.07207    0.65595    1.000
    N53      N        0.19908    0.03403    0.66901    1.000
    Si54     Si       0.23266    0.01614    0.64741    1.000
    Si55     Si       0.07596    0.04218    0.77558    1.000
    Si56     Si       0.00527    0.04096    0.78276    1.000
    Si57     Si       0.01015    0.04561    0.85946    1.000
    N58      N        0.03900    0.03188    0.75547    1.000
    N59      N        0.02180    0.05702    0.81955    1.000
    N60      N        0.08184    0.01354    0.80780    1.000
    Si61     Si       0.07314    0.01110    0.85289    1.000
    N62      N        0.11214    0.03981    0.75106    1.000
    N63      N        0.18348    0.05459    0.76960    1.000
    Si64     Si       0.17951    0.04686    0.81346    1.000
    N65      N        0.21363    0.01840    0.82521    1.000
    Si66     Si       0.13971    0.01040    0.86730    1.000
    N67      N        0.14937    0.01390    0.82366    1.000
    N68      N        0.10278    0.03655    0.87519    1.000
    N69      N        0.08440    0.05791    0.99676    1.000
    N70      N        0.17171    0.04487    0.87882    1.000
    Si71     Si       0.17069    0.02686    0.91941    1.000
    Si72     Si       0.11494    0.02588    0.98629    1.000
    N73      N        0.14275    0.05819    0.93333    1.000
    Si74     Si       0.18523    0.02906    0.98610    1.000
    N75      N        0.20541    0.02297    0.94723    1.000
    N76      N        0.04499    0.10257    0.04016    1.000
    Si77     Si       0.00480    0.08827    0.04631    1.000
    Si78     Si       0.07505    0.07336    0.03592    1.000
    N79      N        0.99744    0.09897    0.08595    1.000
    N80      N        0.11159    0.09235    0.04638    1.000
    N81      N        0.18181    0.09002    0.05185    1.000
    Si82     Si       0.14581    0.06716    0.04237    1.000
    Si83     Si       0.21708    0.06482    0.04416    1.000
    Si84     Si       0.99429    0.07890    0.12451    1.000
    N85      N        0.07032    0.11164    0.14019    1.000
    Si86     Si       0.08179    0.08437    0.21885    1.000
    N87      N        0.00283    0.11443    0.15203    1.000
    N88      N        0.09940    0.12072    0.20503    1.000
    N89      N        0.04679    0.08990    0.24347    1.000
    Si90     Si       0.10720    0.12248    0.16203    1.000
    Si91     Si       0.06588    0.06915    0.14147    1.000
    Si92     Si       0.24066    0.11603    0.13732    1.000
    N93      N        0.18376    0.07654    0.23485    1.000
    Si94     Si       0.22045    0.07813    0.20954    1.000
    N95      N        0.21905    0.10002    0.17235    1.000
    N96      N        0.14735    0.10708    0.15721    1.000
    N97      N        0.11494    0.07162    0.24363    1.000
    N98      N        0.07919    0.08928    0.31046    1.000
    N99      N        0.01324    0.10797    0.36478    1.000
    Si100    Si       0.11071    0.06512    0.28702    1.000
    N101     N        0.14962    0.08260    0.29690    1.000
    Si102    Si       0.17296    0.10673    0.26731    1.000
    Si103    Si       0.14736    0.09669    0.33896    1.000
    N104     N        0.18753    0.10369    0.35107    1.000
    N105     N        0.12383    0.07484    0.36698    1.000
    N106     N        0.20651    0.12345    0.28696    1.000
    Si107    Si       0.20241    0.06799    0.37393    1.000
    Si108    Si       0.10950    0.11231    0.46587    1.000
    N109     N        0.06735    0.10860    0.47170    1.000
    Si110    Si       0.09286    0.08337    0.40004    1.000
    N111     N        0.04833    0.08857    0.40771    1.000
    Si112    Si       0.03997    0.08404    0.44970    1.000
    N113     N        0.99721    0.09267    0.45340    1.000
    Si114    Si       0.02229    0.06781    0.37894    1.000
    N115     N        0.23968    0.09828    0.45087    1.000
    N116     N        0.11859    0.08373    0.43611    1.000
    N117     N        0.18794    0.08014    0.41414    1.000
    Si118    Si       0.20629    0.11448    0.43005    1.000
    N119     N        0.14066    0.10663    0.49756    1.000
    N120     N        0.05129    0.08978    0.56416    1.000
    Si121    Si       0.01594    0.08934    0.54021    1.000
    Si122    Si       0.08657    0.11745    0.56067    1.000
    N123     N        0.00762    0.07828    0.61347    1.000
    N124     N        0.01278    0.12128    0.51071    1.000
    N125     N        0.12355    0.09429    0.56232    1.000
    Si126    Si       0.14853    0.09521    0.59777    1.000
    N127     N        0.18887    0.10161    0.57509    1.000
    Si128    Si       0.20842    0.08266    0.54143    1.000
    N129     N        0.20958    0.11763    0.50930    1.000
    Si130    Si       0.13693    0.07436    0.52616    1.000
    N131     N        0.01000    0.12811    0.72333    1.000
    Si132    Si       0.00880    0.12028    0.62545    1.000
    N133     N        0.11281    0.11280    0.66721    1.000
    N134     N        0.19080    0.11164    0.66931    1.000
    Si135    Si       0.19458    0.07246    0.68924    1.000
    Si136    Si       0.15142    0.11865    0.68857    1.000
    N137     N        0.22763    0.07508    0.71708    1.000
    N138     N        0.15724    0.07993    0.70965    1.000
    Si139    Si       0.04550    0.09420    0.82029    1.000
    N140     N        0.05998    0.10269    0.86008    1.000
    N141     N        0.07994    0.08282    0.79297    1.000
    Si142    Si       0.10548    0.11629    0.78390    1.000
    Si143    Si       0.99740    0.11443    0.76351    1.000
    N144     N        0.02393    0.12127    0.79679    1.000
    Si145    Si       0.17771    0.11694    0.79567    1.000
    N146     N        0.14321    0.10491    0.77065    1.000
    N147     N        0.17740    0.08790    0.82777    1.000
    N148     N        0.21773    0.11544    0.77804    1.000
    Si149    Si       0.22133    0.07370    0.76065    1.000
    Si150    Si       0.14723    0.06605    0.74910    1.000
    Si151    Si       0.08067    0.09064    0.96689    1.000
    Si152    Si       0.04510    0.09706    0.90138    1.000
    N153     N        0.07607    0.07918    0.92670    1.000
    N154     N        0.99280    0.07411    0.96480    1.000
    N155     N        0.01667    0.06740    0.89614    1.000
    Si156    Si       0.11204    0.06884    0.90390    1.000
    Si157    Si       0.16755    0.08877    0.86869    1.000
    Si158    Si       0.15521    0.08437    0.96623    1.000
    N159     N        0.19632    0.11583    0.88725    1.000
    Si160    Si       0.23247    0.08941    0.97531    1.000
    N161     N        0.12101    0.10908    0.96710    1.000
    N162     N        0.19475    0.10094    0.95931    1.000
    N163     N        0.12604    0.10112    0.87724    1.000
    N164     N        0.08478    0.15832    0.05417    1.000
    N165     N        0.01548    0.16224    0.10735    1.000
    N166     N        0.02361    0.16929    0.03876    1.000
    Si167    Si       0.05395    0.14295    0.02933    1.000
    Si168    Si       0.11788    0.13355    0.05514    1.000
    N169     N        0.19822    0.15873    0.05523    1.000
    N170     N        0.13924    0.15053    0.01798    1.000
    N171     N        0.14126    0.13625    0.09018    1.000
    Si172    Si       0.17826    0.16868    0.01836    1.000
    N173     N        0.20501    0.12493    0.11421    1.000
    Si174    Si       0.13422    0.16793    0.12132    1.000
    Si175    Si       0.21539    0.16828    0.11557    1.000
    Si176    Si       0.18105    0.12465    0.07727    1.000
    Si177    Si       0.00775    0.17541    0.19812    1.000
    N178     N        0.02062    0.15129    0.23310    1.000
    N179     N        0.04299    0.17149    0.17198    1.000
    Si180    Si       0.03712    0.14203    0.14177    1.000
    Si181    Si       0.10951    0.14621    0.23860    1.000
    N182     N        0.10862    0.16500    0.15572    1.000
    Si183    Si       0.17998    0.17203    0.23123    1.000
    Si184    Si       0.23720    0.18190    0.18539    1.000
    N185     N        0.17447    0.17448    0.13883    1.000
    Si186    Si       0.18474    0.12941    0.16080    1.000
    N187     N        0.19831    0.15768    0.19546    1.000
    N188     N        0.05622    0.15548    0.34235    1.000
    Si189    Si       0.01465    0.15748    0.32813    1.000
    N190     N        0.08186    0.14377    0.27322    1.000
    Si191    Si       0.08367    0.13289    0.31556    1.000
    Si192    Si       0.99816    0.17792    0.26143    1.000
    N193     N        0.01112    0.12730    0.29321    1.000
    Si194    Si       0.04144    0.12763    0.26286    1.000
    N195     N        0.12672    0.13453    0.33108    1.000
    Si196    Si       0.20792    0.13619    0.32847    1.000
    Si197    Si       0.14343    0.16880    0.35058    1.000
    N198     N        0.18348    0.17384    0.33456    1.000
    N199     N        0.15225    0.14194    0.24704    1.000
    Si200    Si       0.04747    0.13028    0.38551    1.000
    Si201    Si       0.00653    0.17843    0.44251    1.000
    N202     N        0.01967    0.15552    0.40732    1.000
    N203     N        0.03612    0.17406    0.47670    1.000
    Si204    Si       0.10996    0.16089    0.41352    1.000
    Si205    Si       0.04917    0.13862    0.49623    1.000
    N206     N        0.11336    0.15445    0.45537    1.000
    N207     N        0.08977    0.12874    0.39234    1.000
    N208     N        0.22295    0.14904    0.40669    1.000
    N209     N        0.14927    0.16867    0.39504    1.000
    Si210    Si       0.17217    0.13562    0.49405    1.000
    Si211    Si       0.18415    0.17201    0.41934    1.000
    N212     N        0.17941    0.14177    0.45138    1.000
    N213     N        0.07949    0.14341    0.52664    1.000
    N214     N        0.01023    0.14987    0.59344    1.000
    N215     N        0.08526    0.14598    0.59096    1.000
    Si216    Si       0.04896    0.16685    0.60567    1.000
    Si217    Si       0.08794    0.18223    0.54476    1.000
    Si218    Si       0.12255    0.16730    0.60267    1.000
    Si219    Si       0.19329    0.14191    0.59332    1.000
    N220     N        0.15354    0.13853    0.61103    1.000
    N221     N        0.19637    0.17866    0.57083    1.000
    N222     N        0.15681    0.17549    0.50696    1.000
    N223     N        0.22887    0.14363    0.62030    1.000
    N224     N        0.04651    0.13768    0.64365    1.000
    N225     N        0.07275    0.15915    0.70192    1.000
    Si226    Si       0.08473    0.14518    0.65989    1.000
    Si227    Si       0.03666    0.16391    0.72325    1.000
    Si228    Si       0.10762    0.16535    0.72563    1.000
    N229     N        0.10631    0.17979    0.64263    1.000
    Si230    Si       0.22265    0.14036    0.66308    1.000
    N231     N        0.21751    0.18080    0.67938    1.000
    N232     N        0.14792    0.15469    0.71119    1.000
    N233     N        0.09142    0.15198    0.76234    1.000
    Si234    Si       0.01514    0.16522    0.80169    1.000
    Si235    Si       0.08813    0.17340    0.80075    1.000
    N236     N        0.10367    0.13888    0.82259    1.000
    N237     N        0.01542    0.17907    0.76134    1.000
    Si238    Si       0.09490    0.12805    0.86320    1.000
    N239     N        0.05137    0.18183    0.82056    1.000
    N240     N        0.17273    0.15740    0.80637    1.000
    N241     N        0.21411    0.18254    0.86365    1.000
    Si242    Si       0.23978    0.15217    0.78043    1.000
    N243     N        0.99616    0.14427    0.98189    1.000
    Si244    Si       0.07067    0.16508    0.92754    1.000
    N245     N        0.08934    0.16338    0.88710    1.000
    Si246    Si       0.01153    0.15921    0.94417    1.000
    N247     N        0.03828    0.13381    0.92105    1.000
    N248     N        0.10282    0.17539    0.95500    1.000
    N249     N        0.06804    0.12983    0.98986    1.000
    Si250    Si       0.10896    0.14561    0.98657    1.000
    Si251    Si       0.19938    0.13128    0.92985    1.000
    Si252    Si       0.22935    0.14467    0.87736    1.000
    N253     N        0.20654    0.16578    0.98649    1.000
    N254     N        0.18168    0.17027    0.92364    1.000
    N255     N        0.05868    0.21377    0.09133    1.000
    Si256    Si       0.09183    0.19832    0.06904    1.000
    N257     N        0.10622    0.22647    0.03875    1.000
    Si258    Si       0.99670    0.23506    0.02031    1.000
    Si259    Si       0.02191    0.19418    0.07722    1.000
    N260     N        0.03768    0.24019    0.00502    1.000
    N261     N        0.99430    0.22337    0.06148    1.000
    N262     N        0.12279    0.20103    0.09818    1.000
    N263     N        0.18183    0.21269    0.03179    1.000
    N264     N        0.22621    0.20521    0.09671    1.000
    Si265    Si       0.21764    0.19900    0.05387    1.000
    Si266    Si       0.13378    0.24115    0.10760    1.000
    N267     N        0.07978    0.22959    0.16584    1.000
    N268     N        0.99592    0.20625    0.22823    1.000
    Si269    Si       0.08249    0.18793    0.18142    1.000
    N270     N        0.09870    0.18414    0.22227    1.000
    N271     N        0.15872    0.23942    0.14256    1.000
    N272     N        0.21331    0.21922    0.18122    1.000
    Si273    Si       0.17411    0.20654    0.16994    1.000
    Si274    Si       0.12662    0.21376    0.23777    1.000
    N275     N        0.15859    0.20528    0.21127    1.000
    N276     N        0.05155    0.22975    0.34483    1.000
    Si277    Si       0.07493    0.19258    0.35507    1.000
    Si278    Si       0.02665    0.23405    0.30933    1.000
    N279     N        0.01161    0.19410    0.29971    1.000
    N280     N        0.11369    0.19702    0.33604    1.000
    N281     N        0.15198    0.21536    0.27511    1.000
    Si282    Si       0.13218    0.22797    0.31353    1.000
    Si283    Si       0.20234    0.21342    0.34284    1.000
    Si284    Si       0.19609    0.22451    0.27481    1.000
    N285     N        0.22428    0.22592    0.30840    1.000
    N286     N        0.16508    0.23779    0.34067    1.000
    N287     N        0.21408    0.19086    0.25045    1.000
    Si288    Si       0.09274    0.22658    0.42518    1.000
    Si289    Si       0.05452    0.21352    0.48744    1.000
    N290     N        0.05702    0.23248    0.44954    1.000
    N291     N        0.08482    0.19405    0.39762    1.000
    N292     N        0.99216    0.22072    0.43129    1.000
    N293     N        0.22240    0.20945    0.38087    1.000
    N294     N        0.19262    0.21124    0.43760    1.000
    N295     N        0.12588    0.22240    0.45141    1.000
    Si296    Si       0.22503    0.23111    0.41776    1.000
    Si297    Si       0.12357    0.18877    0.48137    1.000
    Si298    Si       0.16502    0.24255    0.45202    1.000
    Si299    Si       0.01724    0.21686    0.55112    1.000
    N300     N        0.09176    0.20145    0.50601    1.000
    N301     N        0.05170    0.19342    0.56384    1.000
    N302     N        0.02839    0.23656    0.51189    1.000
    Si303    Si       0.01219    0.22898    0.62244    1.000
    Si304    Si       0.20554    0.22183    0.58068    1.000
    N305     N        0.18036    0.23464    0.54836    1.000
    Si306    Si       0.16330    0.19365    0.54556    1.000
    N307     N        0.12381    0.18952    0.56764    1.000
    N308     N        0.19081    0.23417    0.62143    1.000
    N309     N        0.04923    0.20651    0.63031    1.000
    Si310    Si       0.08622    0.21912    0.64870    1.000
    N311     N        0.01051    0.19615    0.70118    1.000
    Si312    Si       0.02287    0.23769    0.69109    1.000
    N313     N        0.06609    0.23766    0.68530    1.000
    N314     N        0.12070    0.20671    0.73378    1.000
    N315     N        0.16921    0.22286    0.68625    1.000
    Si316    Si       0.20394    0.21673    0.66051    1.000
    Si317    Si       0.16235    0.19588    0.71955    1.000
    N318     N        0.18793    0.20422    0.75169    1.000
    Si319    Si       0.04104    0.21754    0.84149    1.000
    N320     N        0.07857    0.23083    0.85826    1.000
    N321     N        0.02648    0.24569    0.80820    1.000
    Si322    Si       0.12054    0.23651    0.76720    1.000
    N323     N        0.11823    0.20522    0.79909    1.000
    N324     N        0.18359    0.22674    0.82309    1.000
    Si325    Si       0.22386    0.21094    0.83150    1.000
    Si326    Si       0.22553    0.22070    0.76445    1.000
    Si327    Si       0.15566    0.19258    0.81996    1.000
    N328     N        0.14525    0.19016    0.86250    1.000
    N329     N        0.23629    0.19163    0.79490    1.000
    N330     N        0.01006    0.21857    0.87435    1.000
    N331     N        0.03796    0.19370    0.94144    1.000
    Si332    Si       0.00372    0.21974    0.91770    1.000
    Si333    Si       0.05111    0.23091    0.96150    1.000
    Si334    Si       0.10649    0.20274    0.87486    1.000
    N335     N        0.09150    0.23992    0.97181    1.000
    N336     N        0.18491    0.23732    0.90343    1.000
    Si337    Si       0.19669    0.19483    0.95552    1.000
    N338     N        0.12031    0.22654    0.91052    1.000
    Si339    Si       0.17959    0.19628    0.88820    1.000
    N340     N        0.23319    0.20909    0.93934    1.000
    N341     N        0.16191    0.22061    0.96523    1.000
    Si342    Si       0.12114    0.21454    0.95274    1.000
    N343     N        0.08474    0.29221    0.02521    1.000
    Si344    Si       0.00774    0.29322    0.10353    1.000
    N345     N        0.02086    0.29194    0.06091    1.000
    Si346    Si       0.08049    0.25192    0.01308    1.000
    N347     N        0.10218    0.26795    0.11702    1.000
    N348     N        0.15514    0.25871    0.07644    1.000
    N349     N        0.14694    0.27564    0.00767    1.000
    N350     N        0.21592    0.27106    0.11951    1.000
    Si351    Si       0.14847    0.24018    0.03688    1.000
    Si352    Si       0.01916    0.27202    0.24349    1.000
    N353     N        0.03589    0.27597    0.13206    1.000
    Si354    Si       0.08442    0.25900    0.19922    1.000
    N355     N        0.04216    0.26992    0.20573    1.000
    Si356    Si       0.02692    0.29143    0.17122    1.000
    N357     N        0.10369    0.24984    0.23640    1.000
    Si358    Si       0.11489    0.30245    0.14190    1.000
    Si359    Si       0.06681    0.24309    0.12580    1.000
    N360     N        0.11234    0.29057    0.18336    1.000
    N361     N        0.18478    0.28222    0.18868    1.000
    Si362    Si       0.18291    0.27321    0.14608    1.000
    Si363    Si       0.21309    0.25310    0.20751    1.000
    N364     N        0.20277    0.25869    0.24854    1.000
    Si365    Si       0.08428    0.26950    0.26974    1.000
    N366     N        0.04296    0.25535    0.27447    1.000
    Si367    Si       0.06165    0.26374    0.36968    1.000
    N368     N        0.10927    0.26315    0.30577    1.000
    N369     N        0.99207    0.25668    0.32387    1.000
    Si370    Si       0.10984    0.30037    0.33051    1.000
    Si371    Si       0.17555    0.27923    0.34207    1.000
    Si372    Si       0.19295    0.29810    0.26381    1.000
    N373     N        0.21080    0.27987    0.36729    1.000
    N374     N        0.18827    0.29837    0.30639    1.000
    N375     N        0.14171    0.30085    0.36090    1.000
    N376     N        0.09383    0.26015    0.39858    1.000
    N377     N        0.01657    0.28597    0.45957    1.000
    Si378    Si       0.02152    0.25018    0.43412    1.000
    N379     N        0.02404    0.27126    0.39487    1.000
    N380     N        0.17778    0.26637    0.48542    1.000
    N381     N        0.16171    0.27301    0.41964    1.000
    Si382    Si       0.19776    0.29186    0.40624    1.000
    Si383    Si       0.21349    0.29414    0.47892    1.000
    Si384    Si       0.12724    0.28685    0.40076    1.000
    N385     N        0.22244    0.27417    0.43808    1.000
    N386     N        0.08249    0.28993    0.58497    1.000
    Si387    Si       0.99816    0.28705    0.57415    1.000
    Si388    Si       0.02372    0.28083    0.50313    1.000
    N389     N        0.99393    0.29242    0.53145    1.000
    N390     N        0.01224    0.24717    0.58287    1.000
    Si391    Si       0.10936    0.28511    0.62096    1.000
    Si392    Si       0.09283    0.29946    0.54321    1.000
    N393     N        0.12014    0.26870    0.52909    1.000
    Si394    Si       0.16325    0.26770    0.52517    1.000
    N395     N        0.21887    0.29040    0.60189    1.000
    N396     N        0.23652    0.28935    0.51731    1.000
    N397     N        0.14821    0.29914    0.60339    1.000
    Si398    Si       0.21913    0.29991    0.55770    1.000
    Si399    Si       0.18159    0.27821    0.62272    1.000
    Si400    Si       0.08290    0.26561    0.71318    1.000
    N401     N        0.01244    0.26242    0.72360    1.000
    N402     N        0.00013    0.25219    0.65657    1.000
    Si403    Si       0.14385    0.29640    0.74359    1.000
    N404     N        0.11665    0.24956    0.64219    1.000
    N405     N        0.17077    0.29023    0.66382    1.000
    Si406    Si       0.14354    0.25796    0.67766    1.000
    N407     N        0.12370    0.27742    0.70901    1.000
    N408     N        0.08580    0.28149    0.81578    1.000
    Si409    Si       0.05567    0.26854    0.78691    1.000
    Si410    Si       0.08999    0.27323    0.85761    1.000
    N411     N        0.08106    0.25293    0.75616    1.000
    N412     N        0.00344    0.30059    0.83512    1.000
    N413     N        0.14948    0.26649    0.77461    1.000
    N414     N        0.21844    0.26304    0.77642    1.000
    Si415    Si       0.18153    0.26443    0.80352    1.000
    N416     N        0.18717    0.29804    0.83111    1.000
    Si417    Si       0.21796    0.30260    0.75757    1.000
    N418     N        0.12943    0.28306    0.87338    1.000
    N419     N        0.05765    0.29757    0.87652    1.000
    N420     N        0.03225    0.25381    0.92835    1.000
    Si421    Si       0.03392    0.29361    0.91401    1.000
    N422     N        0.15074    0.28702    0.93962    1.000
    Si423    Si       0.22042    0.24920    0.92696    1.000
    N424     N        0.21070    0.26937    0.96262    1.000
    Si425    Si       0.16824    0.26415    0.97283    1.000
    Si426    Si       0.14603    0.26098    0.90606    1.000
    Si427    Si       0.05374    0.31625    0.04214    1.000
    N428     N        0.05856    0.34634    0.07353    1.000
    N429     N        0.02631    0.33032    0.01118    1.000
    Si430    Si       0.10075    0.35154    0.08615    1.000
    N431     N        0.10374    0.35120    0.00537    1.000
    N432     N        0.99518    0.33491    0.10587    1.000
    Si433    Si       0.99331    0.30910    0.02874    1.000
    Si434    Si       0.12414    0.31445    0.02272    1.000
    N435     N        0.16295    0.34103    0.01195    1.000
    N436     N        0.12674    0.32318    0.06628    1.000
    Si437    Si       0.19906    0.33579    0.03422    1.000
    N438     N        0.19488    0.31771    0.07412    1.000
    Si439    Si       0.22480    0.31166    0.10460    1.000
    N440     N        0.22833    0.30850    0.01486    1.000
    Si441    Si       0.15846    0.30191    0.08809    1.000
    N442     N        0.09484    0.33943    0.12801    1.000
    N443     N        0.04473    0.33326    0.17724    1.000
    Si444    Si       0.02745    0.34959    0.21415    1.000
    N445     N        0.01495    0.31746    0.24149    1.000
    Si446    Si       0.14999    0.30462    0.20162    1.000
    N447     N        0.15422    0.30936    0.24555    1.000
    N448     N        0.21608    0.33644    0.13831    1.000
    N449     N        0.15654    0.30672    0.13172    1.000
    Si450    Si       0.17461    0.34491    0.14706    1.000
    N451     N        0.15561    0.34621    0.18623    1.000
    Si452    Si       0.04627    0.33551    0.35037    1.000
    N453     N        0.03097    0.33851    0.30913    1.000
    Si454    Si       0.04714    0.33253    0.27011    1.000
    N455     N        0.08288    0.31215    0.25781    1.000
    Si456    Si       0.98936    0.35547    0.30712    1.000
    N457     N        0.06983    0.29995    0.35032    1.000
    N458     N        0.12029    0.33455    0.30669    1.000
    Si459    Si       0.12109    0.33243    0.26193    1.000
    Si460    Si       0.21094    0.33867    0.30927    1.000
    N461     N        0.22524    0.32905    0.26750    1.000
    N462     N        0.23977    0.33871    0.34252    1.000
    N463     N        0.09924    0.35314    0.47752    1.000
    N464     N        0.03778    0.34295    0.39556    1.000
    Si465    Si       0.01750    0.32160    0.43092    1.000
    N466     N        0.02938    0.34950    0.46598    1.000
    N467     N        0.18826    0.33363    0.40327    1.000
    N468     N        0.20805    0.33592    0.47423    1.000
    Si469    Si       0.15199    0.33946    0.37926    1.000
    Si470    Si       0.19090    0.35773    0.44063    1.000
    N471     N        0.12356    0.32839    0.41267    1.000
    Si472    Si       0.06041    0.32193    0.60651    1.000
    N473     N        0.01807    0.31308    0.60403    1.000
    N474     N        0.06000    0.30427    0.51282    1.000
    Si475    Si       0.06091    0.34527    0.49519    1.000
    N476     N        0.11591    0.33772    0.54980    1.000
    Si477    Si       0.15378    0.32947    0.57100    1.000
    N478     N        0.23118    0.34333    0.55103    1.000
    Si479    Si       0.21086    0.35919    0.51331    1.000
    N480     N        0.17448    0.36314    0.58927    1.000
    N481     N        0.17667    0.30373    0.54526    1.000
    N482     N        0.06366    0.30544    0.70700    1.000
    N483     N        0.99401    0.33432    0.72069    1.000
    Si484    Si       0.08103    0.33516    0.68050    1.000
    N485     N        0.08571    0.31415    0.64237    1.000
    Si486    Si       0.02566    0.30591    0.72846    1.000
    N487     N        0.18378    0.30900    0.73008    1.000
    Si488    Si       0.18553    0.32239    0.68766    1.000
    N489     N        0.11444    0.35278    0.70201    1.000
    N490     N        0.22501    0.32201    0.67002    1.000
    Si491    Si       0.04458    0.34571    0.78193    1.000
    N492     N        0.06795    0.34362    0.81820    1.000
    Si493    Si       0.04138    0.31992    0.84464    1.000
    N494     N        0.01684    0.35568    0.86155    1.000
    N495     N        0.03766    0.30524    0.77025    1.000
    Si496    Si       0.10469    0.31937    0.80404    1.000
    N497     N        0.12036    0.32631    0.76482    1.000
    N498     N        0.12980    0.33806    0.83417    1.000
    Si499    Si       0.21932    0.33053    0.83136    1.000
    N500     N        0.22720    0.33403    0.78668    1.000
    Si501    Si       0.15705    0.31383    0.85730    1.000
    N502     N        0.04312    0.32573    0.94301    1.000
    Si503    Si       0.03029    0.35265    0.97389    1.000
    N504     N        0.99167    0.30362    0.90505    1.000
    N505     N        0.17540    0.33300    0.89262    1.000
    N506     N        0.13404    0.35912    0.94142    1.000
    N507     N        0.20392    0.33689    0.95226    1.000
    Si508    Si       0.23031    0.30737    0.97065    1.000
    Si509    Si       0.16311    0.32839    0.93398    1.000
    N510     N        0.00724    0.39669    0.07022    1.000
    Si511    Si       0.08286    0.39050    0.00625    1.000
    Si512    Si       0.02536    0.36615    0.09452    1.000
    N513     N        0.06497    0.41156    0.03765    1.000
    N514     N        0.11458    0.39113    0.08086    1.000
    Si515    Si       0.15156    0.40572    0.09571    1.000
    Si516    Si       0.21814    0.40816    0.05888    1.000
    N517     N        0.22267    0.37007    0.04361    1.000
    N518     N        0.03886    0.38517    0.13144    1.000
    N519     N        0.09326    0.38683    0.17768    1.000
    Si520    Si       0.06784    0.36009    0.15365    1.000
    Si521    Si       0.24022    0.36673    0.15909    1.000
    N522     N        0.15119    0.41644    0.19174    1.000
    Si523    Si       0.17478    0.41533    0.15413    1.000
    N524     N        0.11956    0.37103    0.24097    1.000
    N525     N        0.16620    0.37929    0.12585    1.000
    N526     N        0.21710    0.38848    0.23735    1.000
    Si527    Si       0.13006    0.37876    0.19920    1.000
    Si528    Si       0.22717    0.41836    0.20743    1.000
    N529     N        0.21561    0.40116    0.16879    1.000
    N530     N        0.09963    0.40602    0.29905    1.000
    N531     N        0.07171    0.37403    0.34757    1.000
    Si532    Si       0.08689    0.39565    0.25636    1.000
    Si533    Si       0.00265    0.41237    0.34784    1.000
    Si534    Si       0.06887    0.41627    0.32942    1.000
    N535     N        0.99288    0.36995    0.34877    1.000
    Si536    Si       0.11203    0.37238    0.32629    1.000
    N537     N        0.05123    0.37036    0.24764    1.000
    N538     N        0.18446    0.37150    0.30551    1.000
    Si539    Si       0.19265    0.39806    0.27130    1.000
    N540     N        0.14181    0.37969    0.35922    1.000
    Si541    Si       0.17651    0.39964    0.34018    1.000
    N542     N        0.21589    0.41013    0.35655    1.000
    Si543    Si       0.11158    0.36000    0.43673    1.000
    N544     N        0.09432    0.39078    0.41034    1.000
    Si545    Si       0.05695    0.38331    0.39004    1.000
    Si546    Si       0.99706    0.37365    0.48178    1.000
    N547     N        0.01792    0.41095    0.48688    1.000
    N548     N        0.03065    0.41795    0.38353    1.000
    Si549    Si       0.16961    0.41651    0.43916    1.000
    N550     N        0.20759    0.39855    0.42647    1.000
    N551     N        0.15288    0.37702    0.45158    1.000
    Si552    Si       0.23451    0.40947    0.39495    1.000
    Si553    Si       0.12015    0.41165    0.38323    1.000
    Si554    Si       0.13665    0.37189    0.49342    1.000
    N555     N        0.06163    0.37532    0.52777    1.000
    Si556    Si       0.09188    0.37310    0.55858    1.000
    Si557    Si       0.03480    0.40869    0.52676    1.000
    N558     N        0.00242    0.41178    0.55559    1.000
    N559     N        0.06952    0.36225    0.59600    1.000
    N560     N        0.11804    0.40637    0.57359    1.000
    N561     N        0.23385    0.39591    0.51241    1.000
    N562     N        0.21838    0.41395    0.58147    1.000
    Si563    Si       0.14799    0.39559    0.60426    1.000
    Si564    Si       0.21700    0.37043    0.58336    1.000
    N565     N        0.16987    0.37002    0.51898    1.000
    N566     N        0.12091    0.41225    0.50002    1.000
    Si567    Si       0.11092    0.36594    0.74370    1.000
    Si568    Si       0.02633    0.39349    0.68302    1.000
    Si569    Si       0.08077    0.38954    0.62972    1.000
    N570     N        0.06091    0.37347    0.66694    1.000
    N571     N        0.01409    0.39739    0.72270    1.000
    N572     N        0.17929    0.36666    0.68703    1.000
    Si573    Si       0.14042    0.37967    0.67705    1.000
    Si574    Si       0.20818    0.38831    0.71405    1.000
    N575     N        0.12238    0.38037    0.63696    1.000
    N576     N        0.13638    0.42140    0.68872    1.000
    Si577    Si       0.00751    0.38487    0.82894    1.000
    N578     N        0.10700    0.41042    0.82791    1.000
    N579     N        0.04009    0.41035    0.84552    1.000
    Si580    Si       0.09944    0.37067    0.84076    1.000
    N581     N        0.06713    0.36881    0.75416    1.000
    N582     N        0.00928    0.36769    0.78867    1.000
    Si583    Si       0.04781    0.40856    0.74827    1.000
    N584     N        0.20642    0.36836    0.84723    1.000
    Si585    Si       0.21415    0.40652    0.83030    1.000
    N586     N        0.12617    0.40689    0.75431    1.000
    N587     N        0.18843    0.39176    0.75144    1.000
    Si588    Si       0.16242    0.41750    0.77542    1.000
    Si589    Si       0.04512    0.38391    0.88107    1.000
    N590     N        0.02395    0.39952    0.91578    1.000
    N591     N        0.05496    0.38770    0.97498    1.000
    N592     N        0.08511    0.36762    0.88149    1.000
    Si593    Si       0.05460    0.41462    0.94193    1.000
    N594     N        0.09228    0.41785    0.92045    1.000
    Si595    Si       0.11603    0.38396    0.90893    1.000
    Si596    Si       0.21421    0.38275    0.95569    1.000
    N597     N        0.20771    0.39906    0.91443    1.000
    N598     N        0.17961    0.39641    0.97766    1.000
    N599     N        0.14697    0.39222    0.87982    1.000
    Si600    Si       0.14162    0.36962    0.98540    1.000
    N601     N        0.11934    0.40864    0.98899    1.000
    Si602    Si       0.18521    0.37558    0.88659    1.000
    N603     N        0.08005    0.44716    0.10375    1.000
    N604     N        0.02688    0.46531    0.05556    1.000
    Si605    Si       0.04637    0.47019    0.09738    1.000
    Si606    Si       0.09305    0.42528    0.06598    1.000
    Si607    Si       0.02523    0.42345    0.04148    1.000
    N608     N        0.00184    0.42391    0.00693    1.000
    N609     N        0.23680    0.43269    0.03071    1.000
    N610     N        0.12077    0.45473    0.05238    1.000
    Si611    Si       0.16245    0.45333    0.04669    1.000
    N612     N        0.16714    0.46105    0.00411    1.000
    N613     N        0.17523    0.41678    0.06220    1.000
    N614     N        0.01488    0.45415    0.12017    1.000
    N615     N        0.04083    0.43945    0.18264    1.000
    N616     N        0.09141    0.43152    0.23063    1.000
    Si617    Si       0.01791    0.45848    0.21633    1.000
    N618     N        0.10152    0.46273    0.16733    1.000
    Si619    Si       0.08289    0.42759    0.18763    1.000
    Si620    Si       0.02045    0.42236    0.14901    1.000
    N621     N        0.99150    0.42496    0.22780    1.000
    N622     N        0.20570    0.45279    0.22083    1.000
    Si623    Si       0.11320    0.46348    0.12546    1.000
    N624     N        0.15094    0.43852    0.12366    1.000
    Si625    Si       0.15883    0.44558    0.22103    1.000
    N626     N        0.09412    0.43740    0.35795    1.000
    N627     N        0.03420    0.46038    0.25781    1.000
    Si628    Si       0.00520    0.43050    0.27565    1.000
    N629     N        0.10590    0.47163    0.28637    1.000
    Si630    Si       0.07668    0.46658    0.25190    1.000
    N631     N        0.02918    0.42125    0.31339    1.000
    N632     N        0.22148    0.42902    0.28965    1.000
    N633     N        0.16157    0.43132    0.26432    1.000
    Si634    Si       0.13124    0.43761    0.29616    1.000
    Si635    Si       0.20132    0.45883    0.26579    1.000
    N636     N        0.15860    0.43642    0.32744    1.000
    Si637    Si       0.02852    0.45882    0.39757    1.000
    N638     N        0.00820    0.45843    0.43519    1.000
    Si639    Si       0.02746    0.45003    0.47147    1.000
    N640     N        0.07026    0.45613    0.47258    1.000
    N641     N        0.06772    0.47755    0.40538    1.000
    Si642    Si       0.09357    0.47874    0.37108    1.000
    Si643    Si       0.20046    0.47863    0.46210    1.000
    N644     N        0.17310    0.44491    0.47023    1.000
    N645     N        0.15038    0.43314    0.40620    1.000
    N646     N        0.06440    0.44072    0.54097    1.000
    Si647    Si       0.09095    0.44160    0.58020    1.000
    Si648    Si       0.09282    0.44435    0.50736    1.000
    N649     N        0.06589    0.42822    0.61370    1.000
    N650     N        0.01255    0.47552    0.50518    1.000
    N651     N        0.99081    0.43227    0.61437    1.000
    N652     N        0.01717    0.47901    0.57019    1.000
    Si653    Si       0.20792    0.44289    0.61278    1.000
    N654     N        0.18340    0.44574    0.53736    1.000
    Si655    Si       0.15401    0.43946    0.50794    1.000
    Si656    Si       0.22167    0.42824    0.54000    1.000
    N657     N        0.12482    0.47363    0.51622    1.000
    Si658    Si       0.03055    0.44837    0.62923    1.000
    N659     N        0.03094    0.43381    0.66921    1.000
    N660     N        0.01003    0.46062    0.72820    1.000
    N661     N        0.07207    0.43289    0.72170    1.000
    Si662    Si       0.04496    0.46087    0.70266    1.000
    Si663    Si       0.11429    0.43516    0.72271    1.000
    Si664    Si       0.15647    0.44936    0.66136    1.000
    N665     N        0.12579    0.47720    0.72221    1.000
    N666     N        0.23791    0.44588    0.64539    1.000
    N667     N        0.18551    0.47054    0.68823    1.000
    Si668    Si       0.22705    0.46276    0.68616    1.000
    N669     N        0.16982    0.42706    0.62554    1.000
    N670     N        0.23036    0.42545    0.70931    1.000
    Si671    Si       0.06894    0.43204    0.82151    1.000
    N672     N        0.04435    0.43413    0.78243    1.000
    Si673    Si       0.01772    0.46473    0.76964    1.000
    N674     N        0.07888    0.47345    0.82858    1.000
    Si675    Si       0.18124    0.47152    0.80665    1.000
    N676     N        0.17141    0.45928    0.76582    1.000
    N677     N        0.17514    0.42680    0.81852    1.000
    Si678    Si       0.14202    0.42268    0.84811    1.000
    N679     N        0.03931    0.45450    0.95564    1.000
    Si680    Si       0.00052    0.45289    0.97442    1.000
    N681     N        0.12846    0.45707    0.87240    1.000
    Si682    Si       0.11316    0.45369    0.91315    1.000
    N683     N        0.20077    0.47363    0.89266    1.000
    Si684    Si       0.22648    0.43718    0.89886    1.000
    Si685    Si       0.15451    0.43219    0.97608    1.000
    N686     N        0.14930    0.45333    0.93799    1.000
    N687     N        0.04536    0.51243    0.09558    1.000
    N688     N        0.09434    0.51839    0.04413    1.000
    Si689    Si       0.01767    0.50826    0.06029    1.000
    N690     N        0.11905    0.50284    0.10871    1.000
    Si691    Si       0.12310    0.49729    0.06480    1.000
    N692     N        0.21916    0.50663    0.10705    1.000
    Si693    Si       0.20535    0.51253    0.06607    1.000
    N694     N        0.16661    0.49430    0.06350    1.000
    N695     N        0.22359    0.49901    0.03057    1.000
    Si696    Si       0.19401    0.49567    0.99772    1.000
    N697     N        0.00069    0.49577    0.19819    1.000
    N698     N        0.07998    0.50228    0.22584    1.000
    Si699    Si       0.10902    0.49287    0.19485    1.000
    N700     N        0.12107    0.53496    0.18603    1.000
    N701     N        0.20092    0.52508    0.22779    1.000
    Si702    Si       0.15851    0.53194    0.21555    1.000
    N703     N        0.14615    0.48767    0.21805    1.000
    Si704    Si       0.21386    0.49204    0.20133    1.000
    Si705    Si       0.20123    0.52911    0.14241    1.000
    N706     N        0.19097    0.49595    0.16662    1.000
    Si707    Si       0.02748    0.51209    0.34532    1.000
    Si708    Si       0.09723    0.50891    0.30901    1.000
    N709     N        0.00819    0.51221    0.30687    1.000
    N710     N        0.07190    0.50307    0.34333    1.000
    Si711    Si       0.15571    0.52454    0.35468    1.000
    N712     N        0.19900    0.51118    0.35683    1.000
    N713     N        0.21044    0.49564    0.28408    1.000
    N714     N        0.13507    0.52793    0.31473    1.000
    Si715    Si       0.22782    0.50267    0.32254    1.000
    Si716    Si       0.21751    0.53460    0.26711    1.000
    N717     N        0.00724    0.48349    0.37079    1.000
    Si718    Si       0.08013    0.48725    0.44375    1.000
    N719     N        0.06055    0.52400    0.45664    1.000
    Si720    Si       0.15030    0.47670    0.41258    1.000
    N721     N        0.12314    0.48707    0.44505    1.000
    Si722    Si       0.21650    0.51634    0.39668    1.000
    N723     N        0.18098    0.51163    0.48202    1.000
    N724     N        0.19005    0.49068    0.42169    1.000
    N725     N        0.13280    0.49657    0.37879    1.000
    Si726    Si       0.13854    0.50178    0.48441    1.000
    Si727    Si       0.01323    0.51207    0.59804    1.000
    N728     N        0.06667    0.51061    0.52609    1.000
    Si729    Si       0.10671    0.50799    0.54412    1.000
    N730     N        0.10967    0.48337    0.58250    1.000
    Si731    Si       0.04058    0.47863    0.53589    1.000
    Si732    Si       0.19279    0.52311    0.58958    1.000
    N733     N        0.17763    0.53335    0.55116    1.000
    Si734    Si       0.12354    0.50756    0.61734    1.000
    Si735    Si       0.20238    0.53059    0.51613    1.000
    N736     N        0.15792    0.53548    0.61869    1.000
    N737     N        0.20143    0.48300    0.59863    1.000
    N738     N        0.11618    0.53397    0.49808    1.000
    N739     N        0.08729    0.53154    0.62874    1.000
    Si740    Si       0.05369    0.52092    0.65665    1.000
    Si741    Si       0.10941    0.49957    0.68767    1.000
    N742     N        0.06595    0.49532    0.68917    1.000
    N743     N        0.03001    0.49471    0.63423    1.000
    Si744    Si       0.16829    0.48254    0.72851    1.000
    N745     N        0.17381    0.52544    0.73570    1.000
    N746     N        0.12747    0.48217    0.65291    1.000
    N747     N        0.03358    0.50434    0.77530    1.000
    Si748    Si       0.05381    0.50600    0.81307    1.000
    N749     N        0.02794    0.52124    0.84324    1.000
    N750     N        0.11338    0.52598    0.86825    1.000
    Si751    Si       0.11695    0.48899    0.84581    1.000
    Si752    Si       0.22035    0.49717    0.86095    1.000
    N753     N        0.15159    0.49990    0.82081    1.000
    N754     N        0.21808    0.48918    0.81677    1.000
    N755     N        0.19864    0.53638    0.86234    1.000
    Si756    Si       0.00082    0.52424    0.87569    1.000
    N757     N        0.04820    0.52313    0.96804    1.000
    N758     N        0.08933    0.49078    0.91997    1.000
    Si759    Si       0.04983    0.49376    0.93590    1.000
    N760     N        0.01643    0.50556    0.91108    1.000
    Si761    Si       0.01074    0.52424    0.98966    1.000
    N762     N        0.21000    0.48537    0.95891    1.000
    Si763    Si       0.11134    0.52728    0.91181    1.000
    Si764    Si       0.17884    0.48582    0.92824    1.000
    N765     N        0.15223    0.52139    0.93004    1.000
    N766     N        0.18192    0.53738    0.99571    1.000
    N767     N        0.07025    0.57442    0.07131    1.000
    Si768    Si       0.06560    0.54943    0.03551    1.000
    Si769    Si       0.05608    0.55145    0.10634    1.000
    N770     N        0.07552    0.57488    0.00296    1.000
    N771     N        0.02551    0.58052    0.11728    1.000
    N772     N        0.02276    0.53999    0.03170    1.000
    N773     N        0.20532    0.55541    0.06164    1.000
    Si774    Si       0.20472    0.56548    0.01913    1.000
    Si775    Si       0.17809    0.57442    0.08966    1.000
    N776     N        0.13758    0.56328    0.07978    1.000
    Si777    Si       0.12959    0.54273    0.11899    1.000
    N778     N        0.09193    0.56090    0.12938    1.000
    Si779    Si       0.09094    0.56605    0.17496    1.000
    N780     N        0.08548    0.58034    0.22216    1.000
    N781     N        0.04834    0.55249    0.17639    1.000
    Si782    Si       0.02209    0.58632    0.16062    1.000
    Si783    Si       0.09075    0.54082    0.24272    1.000
    N784     N        0.01831    0.54758    0.24381    1.000
    Si785    Si       0.01599    0.53701    0.20190    1.000
    N786     N        0.98845    0.56474    0.18299    1.000
    Si787    Si       0.16248    0.58749    0.16172    1.000
    N788     N        0.23102    0.54961    0.16982    1.000
    Si789    Si       0.21684    0.56524    0.20853    1.000
    N790     N        0.17013    0.55699    0.13123    1.000
    Si791    Si       0.13299    0.58819    0.21956    1.000
    N792     N        0.17172    0.57320    0.20118    1.000
    N793     N        0.02196    0.58113    0.29973    1.000
    N794     N        0.03021    0.55135    0.36328    1.000
    Si795    Si       0.02102    0.58827    0.34249    1.000
    Si796    Si       0.00649    0.58773    0.25828    1.000
    Si797    Si       0.03353    0.54083    0.28491    1.000
    N798     N        0.07620    0.53669    0.28302    1.000
    Si799    Si       0.14570    0.56069    0.29024    1.000
    N800     N        0.18923    0.56060    0.28950    1.000
    N801     N        0.22825    0.58031    0.35794    1.000
    Si802    Si       0.22484    0.57485    0.31385    1.000
    N803     N        0.15867    0.56760    0.36864    1.000
    N804     N        0.13464    0.55027    0.24913    1.000
    Si805    Si       0.02379    0.54758    0.45838    1.000
    N806     N        0.03092    0.57654    0.42777    1.000
    Si807    Si       0.05579    0.57053    0.39253    1.000
    N808     N        0.09620    0.56543    0.40024    1.000
    N809     N        0.08607    0.58663    0.48353    1.000
    Si810    Si       0.07122    0.54329    0.49623    1.000
    N811     N        0.14890    0.56235    0.44266    1.000
    N812     N        0.20726    0.55393    0.41420    1.000
    N813     N        0.21540    0.56131    0.48584    1.000
    Si814    Si       0.18917    0.54793    0.45338    1.000
    Si815    Si       0.12756    0.56992    0.47988    1.000
    Si816    Si       0.19629    0.58706    0.38527    1.000
    Si817    Si       0.13544    0.58384    0.40565    1.000
    Si818    Si       0.08074    0.55551    0.59460    1.000
    N819     N        0.03990    0.54408    0.58756    1.000
    Si820    Si       0.03130    0.58769    0.58577    1.000
    N821     N        0.10877    0.54654    0.56348    1.000
    N822     N        0.02893    0.56052    0.49985    1.000
    N823     N        0.07292    0.59665    0.59673    1.000
    N824     N        0.00176    0.59421    0.61830    1.000
    N825     N        0.15679    0.59204    0.58148    1.000
    N826     N        0.15275    0.58349    0.51259    1.000
    Si827    Si       0.14658    0.56257    0.55110    1.000
    N828     N        0.22834    0.54664    0.59551    1.000
    Si829    Si       0.01237    0.59016    0.66108    1.000
    N830     N        0.03909    0.55818    0.67458    1.000
    Si831    Si       0.07005    0.56503    0.70474    1.000
    N832     N        0.05519    0.56680    0.74481    1.000
    N833     N        0.10850    0.54172    0.70107    1.000
    N834     N        0.15651    0.58761    0.70190    1.000
    Si835    Si       0.14184    0.55541    0.72563    1.000
    Si836    Si       0.19741    0.59355    0.69077    1.000
    N837     N        0.21220    0.58459    0.73594    1.000
    N838     N        0.22175    0.56062    0.67322    1.000
    Si839    Si       0.15659    0.58000    0.62256    1.000
    Si840    Si       0.09829    0.55867    0.84334    1.000
    Si841    Si       0.08195    0.57416    0.77629    1.000
    N842     N        0.01027    0.57574    0.79643    1.000
    Si843    Si       0.03077    0.56602    0.83491    1.000
    N844     N        0.06229    0.57878    0.86189    1.000
    Si845    Si       0.02148    0.54579    0.76403    1.000
    N846     N        0.07384    0.54531    0.80831    1.000
    N847     N        0.12398    0.56890    0.76337    1.000
    N848     N        0.13824    0.57396    0.82957    1.000
    N849     N        0.18643    0.55909    0.79461    1.000
    Si850    Si       0.15373    0.58904    0.78867    1.000
    Si851    Si       0.20590    0.54887    0.75716    1.000
    Si852    Si       0.16854    0.53815    0.82966    1.000
    N853     N        0.00034    0.57214    0.87073    1.000
    N854     N        0.09869    0.56519    0.92952    1.000
    Si855    Si       0.06813    0.56169    0.96193    1.000
    N856     N        0.03607    0.58337    0.93845    1.000
    Si857    Si       0.03499    0.59284    0.89447    1.000
    N858     N        0.23239    0.59437    0.87448    1.000
    N859     N        0.24012    0.57949    0.99719    1.000
    N860     N        0.20923    0.56237    0.93159    1.000
    Si861    Si       0.19993    0.57164    0.88950    1.000
    N862     N        0.15241    0.58760    0.95702    1.000
    Si863    Si       0.17439    0.54976    0.95487    1.000
    N864     N        0.15925    0.59194    0.88882    1.000
    N865     N        0.04029    0.62751    0.03964    1.000
    N866     N        0.01293    0.63610    0.09238    1.000
    N867     N        0.07141    0.62731    0.10827    1.000
    Si868    Si       0.07375    0.61494    0.01640    1.000
    Si869    Si       0.04452    0.60808    0.08007    1.000
    N870     N        0.10746    0.62244    0.04520    1.000
    Si871    Si       0.10685    0.59790    0.08131    1.000
    Si872    Si       0.19463    0.63210    0.04959    1.000
    N873     N        0.19114    0.61492    0.08946    1.000
    N874     N        0.18001    0.60249    0.01992    1.000
    N875     N        0.13262    0.61755    0.11532    1.000
    Si876    Si       0.17213    0.63723    0.11949    1.000
    N877     N        0.23500    0.64193    0.03463    1.000
    Si878    Si       0.06080    0.61433    0.21249    1.000
    N879     N        0.02212    0.61526    0.23125    1.000
    Si880    Si       0.09982    0.62439    0.14327    1.000
    N881     N        0.05371    0.61760    0.16941    1.000
    Si882    Si       0.03370    0.64051    0.13547    1.000
    N883     N        0.99302    0.62189    0.15121    1.000
    N884     N        0.14237    0.62557    0.23888    1.000
    N885     N        0.23314    0.60779    0.20800    1.000
    N886     N        0.12122    0.59934    0.17592    1.000
    N887     N        0.18956    0.62229    0.15596    1.000
    Si888    Si       0.21537    0.64159    0.18412    1.000
    N889     N        0.05088    0.60636    0.36766    1.000
    Si890    Si       0.13094    0.63796    0.27996    1.000
    N891     N        0.18317    0.62376    0.34832    1.000
    Si892    Si       0.21851    0.63923    0.32797    1.000
    N893     N        0.23241    0.61393    0.29610    1.000
    N894     N        0.13234    0.60027    0.30239    1.000
    Si895    Si       0.14530    0.60133    0.34303    1.000
    Si896    Si       0.24017    0.61225    0.25133    1.000
    N897     N        0.02490    0.62747    0.47589    1.000
    Si898    Si       0.07982    0.63493    0.38333    1.000
    N899     N        0.07387    0.62933    0.42686    1.000
    Si900    Si       0.09206    0.62677    0.46587    1.000
    Si901    Si       0.03052    0.61941    0.43405    1.000
    N902     N        0.00548    0.64941    0.41212    1.000
    N903     N        0.19810    0.63691    0.47104    1.000
    N904     N        0.12186    0.62121    0.37602    1.000
    Si905    Si       0.15694    0.64956    0.37598    1.000
    Si906    Si       0.16822    0.64566    0.43895    1.000
    N907     N        0.17478    0.61530    0.40955    1.000
    N908     N        0.13655    0.62772    0.46485    1.000
    N909     N        0.02567    0.61062    0.54847    1.000
    Si910    Si       0.09738    0.62839    0.61692    1.000
    Si911    Si       0.02312    0.65278    0.56275    1.000
    Si912    Si       0.01496    0.59951    0.50880    1.000
    N913     N        0.12775    0.65047    0.59367    1.000
    Si914    Si       0.16383    0.63322    0.57335    1.000
    N915     N        0.16264    0.64745    0.53071    1.000
    N916     N        0.20231    0.64351    0.58484    1.000
    Si917    Si       0.16658    0.62097    0.49783    1.000
    N918     N        0.02174    0.63153    0.67491    1.000
    Si919    Si       0.06237    0.63809    0.68616    1.000
    N920     N        0.08647    0.60434    0.69572    1.000
    N921     N        0.00118    0.64127    0.73516    1.000
    N922     N        0.08208    0.65698    0.64932    1.000
    Si923    Si       0.20370    0.62593    0.74880    1.000
    N924     N        0.12161    0.59779    0.63891    1.000
    Si925    Si       0.12793    0.60880    0.67907    1.000
    N926     N        0.13771    0.65013    0.68532    1.000
    N927     N        0.18684    0.60604    0.64242    1.000
    N928     N        0.20442    0.63978    0.70598    1.000
    Si929    Si       0.21623    0.63288    0.62386    1.000
    N930     N        0.07671    0.61185    0.79601    1.000
    Si931    Si       0.08790    0.64801    0.81821    1.000
    N932     N        0.99773    0.64650    0.79775    1.000
    Si933    Si       0.99468    0.61047    0.77152    1.000
    N934     N        0.11528    0.63606    0.84966    1.000
    N935     N        0.16645    0.62621    0.77030    1.000
    N936     N        0.18506    0.62385    0.83460    1.000
    Si937    Si       0.14864    0.60993    0.85204    1.000
    Si938    Si       0.22766    0.62270    0.84214    1.000
    N939     N        0.23236    0.65288    0.76569    1.000
    Si940    Si       0.03772    0.62700    0.94943    1.000
    N941     N        0.07335    0.63510    0.97674    1.000
    N942     N        0.03353    0.63465    0.90719    1.000
    N943     N        0.00167    0.63938    0.97200    1.000
    N944     N        0.21138    0.63332    0.96684    1.000
    N945     N        0.11739    0.63661    0.91828    1.000
    N946     N        0.14030    0.64404    0.98593    1.000
    Si947    Si       0.17191    0.61806    0.97821    1.000
    Si948    Si       0.12922    0.59474    0.92121    1.000
    N949     N        0.03659    0.70027    0.06236    1.000
    N950     N        0.09922    0.69895    0.09658    1.000
    Si951    Si       0.05568    0.70627    0.10198    1.000
    Si952    Si       0.01725    0.66086    0.05747    1.000
    N953     N        0.10763    0.69056    0.02474    1.000
    N954     N        0.16813    0.66545    0.04744    1.000
    Si955    Si       0.18374    0.70459    0.04437    1.000
    Si956    Si       0.19525    0.71078    0.11668    1.000
    N957     N        0.21087    0.71004    0.07693    1.000
    Si958    Si       0.13111    0.65396    0.02735    1.000
    N959     N        0.04037    0.68484    0.13594    1.000
    N960     N        0.01877    0.67829    0.20016    1.000
    Si961    Si       0.09528    0.68035    0.19908    1.000
    Si962    Si       0.03229    0.70641    0.17227    1.000
    N963     N        0.10618    0.66476    0.15931    1.000
    N964     N        0.07719    0.65246    0.22794    1.000
    Si965    Si       0.00595    0.65480    0.23054    1.000
    N966     N        0.16425    0.68031    0.12018    1.000
    N967     N        0.22259    0.70081    0.14938    1.000
    Si968    Si       0.21709    0.70856    0.19086    1.000
    Si969    Si       0.16338    0.66516    0.23344    1.000
    Si970    Si       0.12428    0.69092    0.13182    1.000
    N971     N        0.13480    0.69092    0.21461    1.000
    N972     N        0.19830    0.67169    0.20799    1.000
    N973     N        0.02318    0.66789    0.26894    1.000
    N974     N        0.00140    0.67821    0.34578    1.000
    Si975    Si       0.06670    0.67494    0.26436    1.000
    Si976    Si       0.04002    0.70018    0.35479    1.000
    N977     N        0.07557    0.67415    0.36110    1.000
    Si978    Si       0.10480    0.68098    0.32988    1.000
    Si979    Si       0.99554    0.68495    0.30055    1.000
    N980     N        0.09579    0.65974    0.29289    1.000
    N981     N        0.14554    0.67447    0.34138    1.000
    N982     N        0.21408    0.68257    0.32520    1.000
    Si983    Si       0.17294    0.69479    0.31282    1.000
    N984     N        0.16139    0.67301    0.27712    1.000
    N985     N        0.02853    0.69697    0.46013    1.000
    Si986    Si       0.10837    0.69557    0.47649    1.000
    N987     N        0.10408    0.70351    0.43463    1.000
    N988     N        0.08147    0.66303    0.48678    1.000
    Si989    Si       0.03844    0.66723    0.49125    1.000
    Si990    Si       0.99256    0.68157    0.44110    1.000
    N991     N        0.15886    0.67653    0.41059    1.000
    Si992    Si       0.23168    0.66372    0.48086    1.000
    N993     N        0.21338    0.69974    0.46382    1.000
    N994     N        0.14963    0.69887    0.48429    1.000
    N995     N        0.23271    0.70633    0.39336    1.000
    N996     N        0.02305    0.67818    0.52880    1.000
    N997     N        0.05698    0.65852    0.58867    1.000
    N998     N        0.09915    0.71408    0.61195    1.000
    N999     N        0.12883    0.70593    0.54936    1.000
    Si1000   Si       0.13048    0.69151    0.58975    1.000
    Si1001   Si       0.22744    0.66992    0.55860    1.000
    Si1002   Si       0.16274    0.69155    0.52450    1.000
    N1003    N        0.20127    0.70003    0.54116    1.000
    N1004    N        0.16141    0.70839    0.61331    1.000
    Si1005   Si       0.06630    0.68619    0.62001    1.000
    N1006    N        0.99942    0.70172    0.69702    1.000
    N1007    N        0.07815    0.66946    0.71094    1.000
    Si1008   Si       0.10634    0.67890    0.68055    1.000
    Si1009   Si       0.99375    0.65728    0.69454    1.000
    Si1010   Si       0.23586    0.66450    0.69335    1.000
    N1011    N        0.23982    0.66237    0.64525    1.000
    N1012    N        0.19168    0.70145    0.68161    1.000
    N1013    N        0.15553    0.68691    0.73877    1.000
    Si1014   Si       0.17197    0.67053    0.70331    1.000
    N1015    N        0.04172    0.69466    0.76362    1.000
    N1016    N        0.05458    0.66941    0.83567    1.000
    Si1017   Si       0.00944    0.67166    0.83067    1.000
    Si1018   Si       0.00226    0.67509    0.76202    1.000
    N1019    N        0.10613    0.66931    0.78262    1.000
    Si1020   Si       0.06713    0.70958    0.85060    1.000
    Si1021   Si       0.08156    0.68718    0.75026    1.000
    N1022    N        0.00355    0.71152    0.81577    1.000
    N1023    N        0.98989    0.66398    0.86695    1.000
    Si1024   Si       0.14904    0.66505    0.77708    1.000
    N1025    N        0.16915    0.68717    0.80747    1.000
    Si1026   Si       0.18590    0.66715    0.84333    1.000
    N1027    N        0.22804    0.66491    0.85526    1.000
    N1028    N        0.03257    0.69404    0.93783    1.000
    Si1029   Si       0.01361    0.67356    0.90455    1.000
    N1030    N        0.09586    0.69859    0.88274    1.000
    N1031    N        0.10891    0.69575    0.95373    1.000
    Si1032   Si       0.99411    0.68108    0.96197    1.000
    Si1033   Si       0.10701    0.65373    0.95810    1.000
    Si1034   Si       0.12091    0.66353    0.88436    1.000
    N1035    N        0.16394    0.67542    0.87930    1.000
    N1036    N        0.08158    0.75079    0.05592    1.000
    Si1037   Si       0.04674    0.73251    0.03502    1.000
    N1038    N        0.01987    0.76716    0.02884    1.000
    N1039    N        0.04981    0.74735    0.11333    1.000
    Si1040   Si       0.11064    0.71558    0.05829    1.000
    N1041    N        0.15038    0.73256    0.05177    1.000
    Si1042   Si       0.14909    0.76801    0.02333    1.000
    Si1043   Si       0.21947    0.75622    0.99864    1.000
    N1044    N        0.20273    0.71677    0.00755    1.000
    N1045    N        0.00780    0.74153    0.16852    1.000
    Si1046   Si       0.07987    0.74599    0.22300    1.000
    Si1047   Si       0.03230    0.77330    0.14477    1.000
    N1048    N        0.06992    0.71726    0.19164    1.000
    N1049    N        0.12013    0.75894    0.21404    1.000
    N1050    N        0.18721    0.75345    0.12315    1.000
    Si1051   Si       0.14579    0.72832    0.19662    1.000
    Si1052   Si       0.14576    0.76480    0.13303    1.000
    Si1053   Si       0.19868    0.76876    0.23380    1.000
    N1054    N        0.13432    0.72859    0.15498    1.000
    N1055    N        0.18743    0.73916    0.20182    1.000
    Si1056   Si       0.00749    0.75206    0.31226    1.000
    Si1057   Si       0.07878    0.73689    0.29682    1.000
    N1058    N        0.04195    0.72397    0.31783    1.000
    N1059    N        0.10996    0.72477    0.32339    1.000
    N1060    N        0.99742    0.76900    0.35257    1.000
    N1061    N        0.07868    0.71664    0.25759    1.000
    Si1062   Si       0.14185    0.74993    0.34282    1.000
    N1063    N        0.17251    0.73917    0.30898    1.000
    N1064    N        0.22427    0.75503    0.26733    1.000
    Si1065   Si       0.20988    0.76285    0.30589    1.000
    N1066    N        0.23293    0.75016    0.34211    1.000
    N1067    N        0.05828    0.75861    0.44366    1.000
    N1068    N        0.04392    0.72983    0.38591    1.000
    Si1069   Si       0.04414    0.73440    0.47610    1.000
    Si1070   Si       0.07534    0.73021    0.41444    1.000
    Si1071   Si       0.02524    0.77048    0.38652    1.000
    N1072    N        0.99902    0.77685    0.42063    1.000
    N1073    N        0.11033    0.75232    0.39754    1.000
    Si1074   Si       0.20852    0.73895    0.37725    1.000
    N1075    N        0.15644    0.74773    0.43924    1.000
    N1076    N        0.21930    0.76927    0.40513    1.000
    N1077    N        0.16604    0.73330    0.37553    1.000
    Si1078   Si       0.13933    0.71859    0.41040    1.000
    Si1079   Si       0.17877    0.72728    0.46929    1.000
    Si1080   Si       0.08597    0.75232    0.59512    1.000
    N1081    N        0.06251    0.73133    0.56042    1.000
    Si1082   Si       0.09903    0.73443    0.53751    1.000
    N1083    N        0.01517    0.74510    0.50707    1.000
    Si1084   Si       0.02143    0.74655    0.61049    1.000
    Si1085   Si       0.02400    0.71906    0.54255    1.000
    N1086    N        0.00206    0.71884    0.57946    1.000
    N1087    N        0.08406    0.72722    0.49821    1.000
    N1088    N        0.11394    0.76795    0.56437    1.000
    Si1089   Si       0.20971    0.74237    0.53833    1.000
    N1090    N        0.18518    0.75704    0.57138    1.000
    Si1091   Si       0.19241    0.74084    0.61171    1.000
    N1092    N        0.23287    0.73423    0.61686    1.000
    N1093    N        0.19792    0.75311    0.49791    1.000
    Si1094   Si       0.02057    0.72831    0.67151    1.000
    Si1095   Si       0.09104    0.74651    0.70488    1.000
    N1096    N        0.04804    0.75048    0.69987    1.000
    Si1097   Si       0.02334    0.77430    0.73115    1.000
    N1098    N        0.99244    0.74896    0.64528    1.000
    N1099    N        0.11569    0.71899    0.67723    1.000
    N1100    N        0.04100    0.71572    0.63635    1.000
    N1101    N        0.11079    0.77487    0.63288    1.000
    Si1102   Si       0.14286    0.72801    0.74149    1.000
    N1103    N        0.17158    0.75925    0.64577    1.000
    Si1104   Si       0.19063    0.74473    0.68345    1.000
    Si1105   Si       0.13183    0.73274    0.63896    1.000
    N1106    N        0.15979    0.75626    0.71265    1.000
    N1107    N        0.23076    0.75825    0.68653    1.000
    N1108    N        0.07500    0.72957    0.81322    1.000
    Si1109   Si       0.03591    0.72794    0.79176    1.000
    Si1110   Si       0.10201    0.74722    0.78618    1.000
    N1111    N        0.01979    0.76406    0.77412    1.000
    N1112    N        0.04372    0.74059    0.87200    1.000
    N1113    N        0.09843    0.72913    0.74485    1.000
    N1114    N        0.14593    0.74516    0.78084    1.000
    N1115    N        0.19153    0.73531    0.84819    1.000
    N1116    N        0.21476    0.72851    0.77572    1.000
    Si1117   Si       0.18081    0.72937    0.80489    1.000
    Si1118   Si       0.22612    0.77119    0.77286    1.000
    Si1119   Si       0.01251    0.77115    0.87289    1.000
    Si1120   Si       0.10420    0.71682    0.99105    1.000
    N1121    N        0.08234    0.75163    0.92888    1.000
    Si1122   Si       0.05069    0.73001    0.95171    1.000
    N1123    N        0.02233    0.76361    0.95602    1.000
    Si1124   Si       0.99895    0.75569    0.99283    1.000
    Si1125   Si       0.07082    0.76873    0.89098    1.000
    N1126    N        0.06118    0.72233    0.99319    1.000
    Si1127   Si       0.11152    0.72084    0.91803    1.000
    N1128    N        0.12092    0.75772    0.99151    1.000
    Si1129   Si       0.18236    0.71601    0.88823    1.000
    N1130    N        0.14915    0.73920    0.90712    1.000
    N1131    N        0.23655    0.75789    0.96112    1.000
    N1132    N        0.22277    0.71279    0.90778    1.000
    N1133    N        0.05027    0.81005    0.08319    1.000
    Si1134   Si       0.01501    0.79757    0.05911    1.000
    N1135    N        0.11297    0.78411    0.11328    1.000
    N1136    N        0.00366    0.83364    0.03759    1.000
    Si1137   Si       0.07613    0.77547    0.09243    1.000
    N1138    N        0.13624    0.80075    0.04812    1.000
    N1139    N        0.18439    0.78257    0.00239    1.000
    N1140    N        0.00736    0.80949    0.14177    1.000
    N1141    N        0.06722    0.79308    0.16149    1.000
    Si1142   Si       0.06648    0.81484    0.19916    1.000
    Si1143   Si       0.10388    0.81232    0.14622    1.000
    N1144    N        0.05544    0.78245    0.22508    1.000
    N1145    N        0.10901    0.82702    0.19429    1.000
    N1146    N        0.21945    0.81395    0.14218    1.000
    N1147    N        0.16851    0.80051    0.23468    1.000
    N1148    N        0.22719    0.79800    0.21836    1.000
    N1149    N        0.14951    0.80031    0.15926    1.000
    Si1150   Si       0.13893    0.79821    0.20335    1.000
    Si1151   Si       0.17972    0.83205    0.15151    1.000
    Si1152   Si       0.22448    0.77099    0.13541    1.000
    N1153    N        0.01800    0.78550    0.28518    1.000
    Si1154   Si       0.05308    0.79882    0.26630    1.000
    Si1155   Si       0.10400    0.80588    0.30988    1.000
    N1156    N        0.08750    0.77609    0.28340    1.000
    N1157    N        0.06633    0.82503    0.32445    1.000
    N1158    N        0.13055    0.79305    0.33962    1.000
    N1159    N        0.20131    0.80612    0.31370    1.000
    Si1160   Si       0.13839    0.82855    0.36808    1.000
    N1161    N        0.05112    0.82235    0.47201    1.000
    N1162    N        0.10298    0.80719    0.44025    1.000
    Si1163   Si       0.05932    0.80021    0.43568    1.000
    N1164    N        0.05099    0.80568    0.39321    1.000
    N1165    N        0.19304    0.81771    0.45889    1.000
    Si1166   Si       0.19949    0.80622    0.41659    1.000
    N1167    N        0.15866    0.80659    0.39949    1.000
    Si1168   Si       0.13252    0.78067    0.42473    1.000
    Si1169   Si       0.02881    0.81153    0.58170    1.000
    N1170    N        0.05423    0.77934    0.60588    1.000
    N1171    N        0.99371    0.78679    0.59182    1.000
    N1172    N        0.04333    0.82659    0.54447    1.000
    N1173    N        0.15814    0.80977    0.59737    1.000
    N1174    N        0.16211    0.80367    0.52525    1.000
    Si1175   Si       0.15318    0.78520    0.56329    1.000
    N1176    N        0.23269    0.81244    0.51939    1.000
    Si1177   Si       0.19762    0.79663    0.49713    1.000
    N1178    N        0.03723    0.81463    0.73129    1.000
    N1179    N        0.05097    0.81365    0.66494    1.000
    N1180    N        0.10068    0.78947    0.70947    1.000
    Si1181   Si       0.08020    0.80561    0.63455    1.000
    Si1182   Si       0.06927    0.81845    0.70498    1.000
    N1183    N        0.21844    0.79632    0.73924    1.000
    N1184    N        0.15238    0.81803    0.67720    1.000
    Si1185   Si       0.15032    0.79670    0.63876    1.000
    Si1186   Si       0.14390    0.79612    0.71475    1.000
    N1187    N        0.01523    0.79979    0.83946    1.000
    Si1188   Si       0.10835    0.80934    0.83773    1.000
    Si1189   Si       0.99503    0.79283    0.80092    1.000
    N1190    N        0.10815    0.78779    0.79784    1.000
    Si1191   Si       0.03738    0.83002    0.86544    1.000
    N1192    N        0.10689    0.78225    0.87253    1.000
    Si1193   Si       0.15089    0.79328    0.79089    1.000
    N1194    N        0.15669    0.81327    0.75249    1.000
    N1195    N        0.19204    0.78045    0.80232    1.000
    N1196    N        0.14534    0.82997    0.82577    1.000
    Si1197   Si       0.20185    0.77738    0.84594    1.000
    Si1198   Si       0.19755    0.83248    0.75371    1.000
    N1199    N        0.99802    0.82629    0.94674    1.000
    N1200    N        0.06900    0.81544    0.95866    1.000
    Si1201   Si       0.03263    0.80177    0.94020    1.000
    N1202    N        0.03880    0.79893    0.89687    1.000
    Si1203   Si       0.10657    0.79161    0.96718    1.000
    Si1204   Si       0.19452    0.82236    0.98697    1.000
    N1205    N        0.17715    0.79490    0.87657    1.000
    N1206    N        0.13090    0.80275    0.93340    1.000
    Si1207   Si       0.14354    0.78052    0.89860    1.000
    N1208    N        0.11883    0.82957    0.99004    1.000
    N1209    N        0.05677    0.87429    0.06820    1.000
    Si1210   Si       0.05531    0.84999    0.10318    1.000
    Si1211   Si       0.03104    0.86629    0.03548    1.000
    N1212    N        0.06590    0.87542    0.00649    1.000
    N1213    N        0.12505    0.87362    0.04798    1.000
    N1214    N        0.17982    0.84722    0.01829    1.000
    Si1215   Si       0.20811    0.87288    0.03668    1.000
    Si1216   Si       0.13876    0.83881    0.02855    1.000
    N1217    N        0.09410    0.84995    0.12664    1.000
    N1218    N        0.02335    0.87227    0.12401    1.000
    Si1219   Si       0.02820    0.85752    0.23524    1.000
    N1220    N        0.03740    0.84815    0.19425    1.000
    Si1221   Si       0.01033    0.85180    0.15943    1.000
    N1222    N        0.99286    0.83557    0.24301    1.000
    Si1223   Si       0.20875    0.88271    0.19258    1.000
    N1224    N        0.23454    0.87794    0.15838    1.000
    N1225    N        0.23488    0.86204    0.22014    1.000
    Si1226   Si       0.12316    0.88429    0.12844    1.000
    N1227    N        0.13066    0.87386    0.23714    1.000
    N1228    N        0.16366    0.86305    0.12369    1.000
    Si1229   Si       0.13411    0.86371    0.19658    1.000
    N1230    N        0.17728    0.85123    0.19067    1.000
    Si1231   Si       0.20155    0.83281    0.22891    1.000
    Si1232   Si       0.10289    0.86068    0.26713    1.000
    N1233    N        0.06331    0.84170    0.25568    1.000
    N1234    N        0.02435    0.86482    0.36334    1.000
    Si1235   Si       0.06064    0.83790    0.36532    1.000
    N1236    N        0.16958    0.85042    0.34298    1.000
    N1237    N        0.18948    0.85900    0.26560    1.000
    Si1238   Si       0.21014    0.83612    0.34791    1.000
    N1239    N        0.23484    0.86909    0.33245    1.000
    Si1240   Si       0.17079    0.83587    0.30011    1.000
    N1241    N        0.12757    0.83413    0.28858    1.000
    N1242    N        0.07719    0.87724    0.44255    1.000
    N1243    N        0.10167    0.85178    0.37674    1.000
    Si1244   Si       0.09169    0.84344    0.46757    1.000
    N1245    N        0.01464    0.87427    0.49270    1.000
    Si1246   Si       0.09535    0.88844    0.40458    1.000
    N1247    N        0.22256    0.83319    0.39144    1.000
    N1248    N        0.13437    0.84809    0.48005    1.000
    Si1249   Si       0.17632    0.85659    0.46998    1.000
    N1250    N        0.18787    0.89062    0.44610    1.000
    Si1251   Si       0.07828    0.85483    0.54373    1.000
    N1252    N        0.02890    0.84215    0.61160    1.000
    Si1253   Si       0.04729    0.88081    0.60673    1.000
    N1254    N        0.08090    0.87534    0.50419    1.000
    N1255    N        0.07273    0.88732    0.57275    1.000
    Si1256   Si       0.02427    0.83297    0.50458    1.000
    N1257    N        0.11845    0.84480    0.55399    1.000
    N1258    N        0.18581    0.86140    0.51420    1.000
    Si1259   Si       0.22435    0.85319    0.53134    1.000
    Si1260   Si       0.13417    0.84545    0.59311    1.000
    Si1261   Si       0.20527    0.87623    0.60850    1.000
    N1262    N        0.16257    0.87980    0.59234    1.000
    N1263    N        0.23093    0.86373    0.57386    1.000
    Si1264   Si       0.14765    0.84379    0.52138    1.000
    N1265    N        0.10773    0.83981    0.62803    1.000
    N1266    N        0.00606    0.87646    0.66945    1.000
    Si1267   Si       0.10152    0.86702    0.66150    1.000
    N1268    N        0.08477    0.85936    0.70213    1.000
    Si1269   Si       0.01475    0.83579    0.65263    1.000
    Si1270   Si       0.06377    0.88819    0.72602    1.000
    Si1271   Si       0.00923    0.84422    0.74714    1.000
    N1272    N        0.19551    0.86050    0.71718    1.000
    N1273    N        0.14047    0.88472    0.67480    1.000
    N1274    N        0.20183    0.85227    0.64583    1.000
    Si1275   Si       0.17359    0.85657    0.67742    1.000
    Si1276   Si       0.23978    0.83069    0.64397    1.000
    Si1277   Si       0.07968    0.87870    0.83322    1.000
    N1278    N        0.03291    0.87848    0.75498    1.000
    N1279    N        0.07580    0.83863    0.84677    1.000
    N1280    N        0.10861    0.88826    0.80083    1.000
    N1281    N        0.03813    0.89029    0.82600    1.000
    Si1282   Si       0.14689    0.87106    0.80793    1.000
    Si1283   Si       0.21591    0.86916    0.80734    1.000
    N1284    N        0.18065    0.87047    0.77997    1.000
    N1285    N        0.20834    0.84523    0.84348    1.000
    Si1286   Si       0.17100    0.83503    0.85981    1.000
    N1287    N        0.23712    0.84500    0.78062    1.000
    N1288    N        0.04328    0.87860    0.94872    1.000
    Si1289   Si       0.00674    0.86431    0.92835    1.000
    N1290    N        0.01689    0.86310    0.88523    1.000
    Si1291   Si       0.08278    0.85651    0.96847    1.000
    N1292    N        0.18548    0.84326    0.94842    1.000
    Si1293   Si       0.14253    0.84485    0.93400    1.000
    N1294    N        0.11499    0.87679    0.94606    1.000
    N1295    N        0.14823    0.85273    0.89129    1.000
    N1296    N        0.23897    0.83406    0.98036    1.000
    Si1297   Si       0.23000    0.85104    0.94072    1.000
    N1298    N        0.09619    0.93104    0.04972    1.000
    N1299    N        0.00716    0.89524    0.01344    1.000
    Si1300   Si       0.01003    0.91383    0.11810    1.000
    Si1301   Si       0.08638    0.88941    0.04196    1.000
    Si1302   Si       0.17854    0.90193    0.10678    1.000
    N1303    N        0.13587    0.91769    0.10418    1.000
    Si1304   Si       0.13768    0.91407    0.05856    1.000
    N1305    N        0.21723    0.90630    0.00933    1.000
    Si1306   Si       0.19752    0.93241    0.03627    1.000
    N1307    N        0.15774    0.94258    0.03334    1.000
    N1308    N        0.18922    0.89748    0.06652    1.000
    N1309    N        0.06811    0.93746    0.19746    1.000
    Si1310   Si       0.03685    0.93990    0.22753    1.000
    N1311    N        0.04226    0.93886    0.13287    1.000
    N1312    N        0.03086    0.89943    0.24442    1.000
    Si1313   Si       0.11353    0.93380    0.18798    1.000
    N1314    N        0.18692    0.91230    0.21762    1.000
    N1315    N        0.20173    0.92813    0.13263    1.000
    N1316    N        0.12139    0.89489    0.17100    1.000
    N1317    N        0.03349    0.91997    0.31910    1.000
    Si1318   Si       0.03317    0.90859    0.36112    1.000
    Si1319   Si       0.05245    0.91009    0.28075    1.000
    N1320    N        0.09278    0.89796    0.28682    1.000
    Si1321   Si       0.12262    0.92748    0.29879    1.000
    N1322    N        0.12640    0.92899    0.34125    1.000
    N1323    N        0.16133    0.92002    0.28118    1.000
    N1324    N        0.23523    0.92968    0.28945    1.000
    Si1325   Si       0.19385    0.94714    0.28577    1.000
    Si1326   Si       0.16749    0.89259    0.25068    1.000
    N1327    N        0.06957    0.91843    0.38347    1.000
    N1328    N        0.00318    0.92994    0.38531    1.000
    N1329    N        0.02237    0.91856    0.44844    1.000
    Si1330   Si       0.05029    0.89478    0.47423    1.000
    N1331    N        0.06367    0.93260    0.49651    1.000
    N1332    N        0.23562    0.93852    0.45740    1.000
    Si1333   Si       0.14035    0.94126    0.37954    1.000
    Si1334   Si       0.15528    0.91981    0.44233    1.000
    N1335    N        0.23420    0.91346    0.38914    1.000
    Si1336   Si       0.22776    0.90408    0.43183    1.000
    N1337    N        0.13223    0.92061    0.47943    1.000
    N1338    N        0.13497    0.90807    0.40779    1.000
    Si1339   Si       0.09488    0.92420    0.58038    1.000
    Si1340   Si       0.10125    0.91564    0.50713    1.000
    N1341    N        0.01987    0.91413    0.61220    1.000
    N1342    N        0.01124    0.94808    0.54577    1.000
    Si1343   Si       0.02174    0.94918    0.58689    1.000
    N1344    N        0.11551    0.93594    0.54284    1.000
    N1345    N        0.12630    0.93393    0.61052    1.000
    Si1346   Si       0.16486    0.92206    0.59509    1.000
    N1347    N        0.20352    0.91748    0.61846    1.000
    N1348    N        0.00123    0.94764    0.66891    1.000
    N1349    N        0.04285    0.92389    0.70465    1.000
    Si1350   Si       0.00287    0.93690    0.71049    1.000
    N1351    N        0.09806    0.91463    0.73409    1.000
    Si1352   Si       0.02778    0.91317    0.65639    1.000
    Si1353   Si       0.07932    0.94697    0.70785    1.000
    N1354    N        0.06826    0.89061    0.64401    1.000
    N1355    N        0.11098    0.94460    0.68063    1.000
    N1356    N        0.16395    0.92429    0.73367    1.000
    Si1357   Si       0.19360    0.89413    0.74429    1.000
    Si1358   Si       0.22335    0.94775    0.64505    1.000
    Si1359   Si       0.13309    0.91422    0.70616    1.000
    Si1360   Si       0.02936    0.91040    0.78774    1.000
    Si1361   Si       0.10325    0.92471    0.77656    1.000
    N1362    N        0.06193    0.93752    0.78736    1.000
    Si1363   Si       0.02011    0.89990    0.86332    1.000
    N1364    N        0.09940    0.90177    0.86491    1.000
    Si1365   Si       0.19742    0.92013    0.84446    1.000
    N1366    N        0.22687    0.91210    0.81457    1.000
    Si1367   Si       0.23077    0.94182    0.78225    1.000
    N1368    N        0.16433    0.89397    0.84054    1.000
    N1369    N        0.23102    0.91700    0.74638    1.000
    N1370    N        0.04077    0.93658    0.87397    1.000
    Si1371   Si       0.03923    0.90317    0.98527    1.000
    Si1372   Si       0.08488    0.94066    0.87716    1.000
    N1373    N        0.04553    0.94463    0.98195    1.000
    N1374    N        0.09081    0.94560    0.92133    1.000
    N1375    N        0.22763    0.91657    0.87603    1.000
    N1376    N        0.15324    0.92110    0.90483    1.000
    N1377    N        0.24005    0.89325    0.94202    1.000
    Si1378   Si       0.13959    0.89404    0.87590    1.000
    Si1379   Si       0.12267    0.91698    0.93683    1.000
    N1380    N        0.13547    0.94494    0.96830    1.000
    N1381    N        0.09870    0.98649    0.08964    1.000
    N1382    N        0.05005    0.98537    0.03467    1.000
    Si1383   Si       0.09152    0.97581    0.04617    1.000
    Si1384   Si       0.02104    0.97190    0.00586    1.000
    N1385    N        0.01213    0.99871    0.08707    1.000
    N1386    N        0.11735    0.99456    0.01756    1.000
    Si1387   Si       0.12605    0.96161    0.11398    1.000
    Si1388   Si       0.22505    0.99594    0.03806    1.000
    N1389    N        0.16367    0.98310    0.11265    1.000
    N1390    N        0.22627    0.95727    0.05776    1.000
    N1391    N        0.19327    0.99181    0.00872    1.000
    Si1392   Si       0.15275    0.97180    0.00034    1.000
    N1393    N        0.00487    0.96577    0.20887    1.000
    N1394    N        0.05183    0.99813    0.15998    1.000
    Si1395   Si       0.06654    0.95910    0.15925    1.000
    N1396    N        0.11053    0.95851    0.15254    1.000
    N1397    N        0.08704    0.00529    0.22567    1.000
    Si1398   Si       0.17787    0.95664    0.21489    1.000
    Si1399   Si       0.11900    0.98779    0.24611    1.000
    Si1400   Si       0.19402    0.96834    0.13921    1.000
    N1401    N        0.22777    0.99633    0.13162    1.000
    N1402    N        0.13481    0.95533    0.21913    1.000
    N1403    N        0.18328    0.97982    0.17804    1.000
    N1404    N        0.06807    0.97557    0.33789    1.000
    Si1405   Si       0.09977    0.99354    0.31537    1.000
    Si1406   Si       0.03751    0.96321    0.30862    1.000
    N1407    N        0.99702    0.97510    0.31020    1.000
    N1408    N        0.04823    0.95285    0.26806    1.000
    N1409    N        0.11441    0.96866    0.28464    1.000
    Si1410   Si       0.17206    0.99462    0.34632    1.000
    N1411    N        0.18905    0.98517    0.30764    1.000
    N1412    N        0.13127    0.00613    0.34262    1.000
    N1413    N        0.18003    0.95813    0.37020    1.000
    Si1414   Si       0.19291    0.00722    0.26733    1.000
    N1415    N        0.20377    0.96764    0.24709    1.000
    Si1416   Si       0.07534    0.96138    0.37951    1.000
    N1417    N        0.09944    0.99894    0.45777    1.000
    N1418    N        0.04930    0.97875    0.40966    1.000
    N1419    N        0.01596    0.98464    0.48866    1.000
    Si1420   Si       0.01747    0.95328    0.42134    1.000
    Si1421   Si       0.10615    0.00934    0.49846    1.000
    N1422    N        0.16944    0.96212    0.44222    1.000
    Si1423   Si       0.13578    0.99218    0.43307    1.000
    Si1424   Si       0.22450    0.95541    0.37709    1.000
    N1425    N        0.23337    0.98309    0.41116    1.000
    Si1426   Si       0.21138    0.97524    0.44783    1.000
    N1427    N        0.20983    0.00143    0.48139    1.000
    N1428    N        0.11336    0.97025    0.39947    1.000
    Si1429   Si       0.08424    0.99494    0.59107    1.000
    N1430    N        0.00377    0.98111    0.61013    1.000
    Si1431   Si       0.04139    0.96420    0.51665    1.000
    N1432    N        0.06968    0.99687    0.52160    1.000
    N1433    N        0.06511    0.95665    0.58639    1.000
    Si1434   Si       0.21695    0.96563    0.58045    1.000
    N1435    N        0.14229    0.99354    0.51518    1.000
    Si1436   Si       0.14080    0.97072    0.55060    1.000
    N1437    N        0.12709    0.00064    0.58093    1.000
    N1438    N        0.22552    0.00109    0.55375    1.000
    N1439    N        0.22236    0.98265    0.62018    1.000
    N1440    N        0.17533    0.95230    0.56920    1.000
    N1441    N        0.09293    0.99608    0.63407    1.000
    N1442    N        0.07844    0.98707    0.72264    1.000
    Si1443   Si       0.00376    0.98821    0.65377    1.000
    N1444    N        0.00662    0.97184    0.73586    1.000
    Si1445   Si       0.03742    0.99978    0.72398    1.000
    Si1446   Si       0.12087    0.96207    0.64271    1.000
    N1447    N        0.15445    0.99032    0.64739    1.000
    N1448    N        0.20701    0.96498    0.68148    1.000
    N1449    N        0.15528    0.99543    0.72099    1.000
    Si1450   Si       0.17806    0.99640    0.68377    1.000
    N1451    N        0.10234    0.97550    0.85492    1.000
    N1452    N        0.03319    0.00843    0.86418    1.000
    Si1453   Si       0.11498    0.98651    0.81349    1.000
    N1454    N        0.18272    0.95931    0.85436    1.000
    N1455    N        0.12834    0.95932    0.78131    1.000
    Si1456   Si       0.18482    0.98691    0.82056    1.000
    N1457    N        0.19349    0.96523    0.78484    1.000
    Si1458   Si       0.16256    0.96276    0.75403    1.000
    N1459    N        0.02586    0.97419    0.92765    1.000
    Si1460   Si       0.01881    0.97344    0.88504    1.000
    Si1461   Si       0.06186    0.96554    0.94814    1.000
    N1462    N        0.08887    0.00233    0.95604    1.000
    N1463    N        0.00229    0.00270    0.98177    1.000
    Si1464   Si       0.23120    0.98635    0.95009    1.000
    N1465    N        0.15002    0.00318    0.96612    1.000
    Si1466   Si       0.17650    0.95704    0.89879    1.000
    Si1467   Si       0.12511    0.97832    0.94117    1.000
    N1468    N        0.14968    0.99060    0.90416    1.000
    N1469    N        0.20997    0.95940    0.92234    1.000
    Si1470   Si       0.29728    0.02871    0.04148    1.000
    N1471    N        0.30331    0.04923    0.08072    1.000
    N1472    N        0.29693    0.06083    0.01248    1.000
    Si1473   Si       0.31775    0.03055    0.11832    1.000
    Si1474   Si       0.43271    0.01862    0.02711    1.000
    N1475    N        0.44782    0.05864    0.03557    1.000
    N1476    N        0.39514    0.05661    0.10798    1.000
    Si1477   Si       0.39129    0.01751    0.09250    1.000
    N1478    N        0.39541    0.01444    0.04921    1.000
    Si1479   Si       0.48691    0.05574    0.01749    1.000
    Si1480   Si       0.26728    0.02479    0.18234    1.000
    N1481    N        0.28948    0.01433    0.14567    1.000
    N1482    N        0.33283    0.06519    0.13836    1.000
    N1483    N        0.28128    0.06592    0.19086    1.000
    N1484    N        0.41230    0.01096    0.22630    1.000
    N1485    N        0.39244    0.05457    0.17902    1.000
    Si1486   Si       0.47005    0.04721    0.14953    1.000
    Si1487   Si       0.40933    0.01428    0.18274    1.000
    N1488    N        0.44844    0.01329    0.16534    1.000
    N1489    N        0.48244    0.02646    0.22869    1.000
    N1490    N        0.27009    0.03131    0.32687    1.000
    N1491    N        0.33706    0.02115    0.32158    1.000
    Si1492   Si       0.26403    0.04819    0.28586    1.000
    N1493    N        0.29446    0.04256    0.25484    1.000
    Si1494   Si       0.34938    0.05982    0.33726    1.000
    Si1495   Si       0.47383    0.03686    0.34438    1.000
    N1496    N        0.43648    0.02019    0.33336    1.000
    Si1497   Si       0.37922    0.01959    0.25541    1.000
    Si1498   Si       0.40634    0.01444    0.36664    1.000
    N1499    N        0.38176    0.05103    0.36648    1.000
    N1500    N        0.37923    0.06416    0.25245    1.000
    Si1501   Si       0.29503    0.01887    0.46765    1.000
    N1502    N        0.33755    0.02135    0.47079    1.000
    N1503    N        0.27579    0.03550    0.43174    1.000
    Si1504   Si       0.35980    0.05653    0.45672    1.000
    N1505    N        0.40163    0.05548    0.43881    1.000
    N1506    N        0.49116    0.02898    0.38072    1.000
    Si1507   Si       0.32333    0.03058    0.58189    1.000
    N1508    N        0.32028    0.05307    0.54345    1.000
    Si1509   Si       0.24803    0.02994    0.57897    1.000
    N1510    N        0.25052    0.04576    0.61912    1.000
    N1511    N        0.24662    0.06386    0.55094    1.000
    N1512    N        0.27114    0.03073    0.50111    1.000
    Si1513   Si       0.39818    0.02660    0.57064    1.000
    N1514    N        0.42146    0.03706    0.60568    1.000
    N1515    N        0.43625    0.05116    0.49934    1.000
    Si1516   Si       0.43052    0.00930    0.50317    1.000
    N1517    N        0.38975    0.06874    0.55660    1.000
    N1518    N        0.32249    0.04318    0.62444    1.000
    N1519    N        0.28777    0.06271    0.67708    1.000
    N1520    N        0.29301    0.01934    0.73236    1.000
    N1521    N        0.34515    0.03805    0.69880    1.000
    Si1522   Si       0.35398    0.04211    0.65637    1.000
    Si1523   Si       0.30268    0.02350    0.69039    1.000
    Si1524   Si       0.36125    0.05518    0.73460    1.000
    Si1525   Si       0.28465    0.06666    0.63359    1.000
    Si1526   Si       0.46025    0.03649    0.68403    1.000
    N1527    N        0.46455    0.04934    0.72529    1.000
    Si1528   Si       0.30354    0.04512    0.85660    1.000
    N1529    N        0.25372    0.04927    0.77757    1.000
    Si1530   Si       0.29252    0.05403    0.75850    1.000
    N1531    N        0.33486    0.05435    0.76953    1.000
    Si1532   Si       0.25207    0.01716    0.80574    1.000
    N1533    N        0.28617    0.01312    0.83179    1.000
    N1534    N        0.34514    0.03757    0.86831    1.000
    Si1535   Si       0.38247    0.04031    0.84786    1.000
    Si1536   Si       0.43802    0.05441    0.76060    1.000
    N1537    N        0.44612    0.01878    0.78956    1.000
    N1538    N        0.39723    0.03776    0.75245    1.000
    N1539    N        0.48483    0.04525    0.87172    1.000
    Si1540   Si       0.40435    0.00661    0.78334    1.000
    Si1541   Si       0.34639    0.02697    0.91131    1.000
    N1542    N        0.31905    0.04747    0.93988    1.000
    Si1543   Si       0.27616    0.04628    0.92933    1.000
    N1544    N        0.27803    0.06079    0.88839    1.000
    N1545    N        0.35823    0.03672    0.99192    1.000
    Si1546   Si       0.32530    0.06156    0.97968    1.000
    Si1547   Si       0.41800    0.01657    0.90638    1.000
    N1548    N        0.41698    0.04632    0.87526    1.000
    Si1549   Si       0.39428    0.04751    0.96998    1.000
    N1550    N        0.45809    0.00876    0.92207    1.000
    N1551    N        0.42481    0.02090    0.98404    1.000
    N1552    N        0.38626    0.03954    0.92853    1.000
    N1553    N        0.48846    0.02020    0.98905    1.000
    Si1554   Si       0.27819    0.09986    0.02612    1.000
    Si1555   Si       0.28737    0.08856    0.08390    1.000
    N1556    N        0.25109    0.08489    0.05862    1.000
    N1557    N        0.30125    0.12014    0.05787    1.000
    Si1558   Si       0.41571    0.09381    0.11208    1.000
    Si1559   Si       0.42151    0.09173    0.03657    1.000
    N1560    N        0.38710    0.10477    0.01328    1.000
    N1561    N        0.41722    0.11422    0.07342    1.000
    N1562    N        0.44611    0.12452    0.01802    1.000
    N1563    N        0.27456    0.09614    0.12507    1.000
    N1564    N        0.32291    0.10411    0.24360    1.000
    Si1565   Si       0.30221    0.08758    0.15776    1.000
    Si1566   Si       0.28950    0.07809    0.23186    1.000
    N1567    N        0.24875    0.09295    0.24129    1.000
    N1568    N        0.31978    0.12417    0.17131    1.000
    N1569    N        0.45002    0.08107    0.13282    1.000
    Si1570   Si       0.39784    0.08014    0.21633    1.000
    N1571    N        0.38903    0.11053    0.14190    1.000
    Si1572   Si       0.47673    0.06806    0.22065    1.000
    Si1573   Si       0.47197    0.11028    0.15545    1.000
    N1574    N        0.43851    0.08796    0.22716    1.000
    Si1575   Si       0.37368    0.07206    0.14686    1.000
    N1576    N        0.37947    0.11898    0.20693    1.000
    N1577    N        0.26404    0.08944    0.30453    1.000
    N1578    N        0.35336    0.09350    0.31192    1.000
    Si1579   Si       0.24800    0.11778    0.27617    1.000
    Si1580   Si       0.27250    0.07268    0.34446    1.000
    N1581    N        0.31384    0.07288    0.36205    1.000
    Si1582   Si       0.35932    0.10194    0.26907    1.000
    N1583    N        0.46228    0.08085    0.34793    1.000
    Si1584   Si       0.47409    0.11678    0.32508    1.000
    Si1585   Si       0.46093    0.11545    0.25197    1.000
    N1586    N        0.45032    0.12317    0.29228    1.000
    Si1587   Si       0.26303    0.07708    0.41976    1.000
    N1588    N        0.28789    0.11293    0.41297    1.000
    Si1589   Si       0.32342    0.09981    0.39487    1.000
    N1590    N        0.34832    0.08056    0.42277    1.000
    N1591    N        0.24684    0.07219    0.37953    1.000
    Si1592   Si       0.24629    0.12071    0.48678    1.000
    Si1593   Si       0.41342    0.07748    0.47512    1.000
    N1594    N        0.41180    0.10981    0.39283    1.000
    N1595    N        0.43721    0.11204    0.46657    1.000
    Si1596   Si       0.38703    0.07524    0.40360    1.000
    N1597    N        0.37143    0.07942    0.49167    1.000
    Si1598   Si       0.47938    0.10536    0.45231    1.000
    Si1599   Si       0.45470    0.10550    0.38165    1.000
    N1600    N        0.48162    0.09032    0.41279    1.000
    Si1601   Si       0.35499    0.07915    0.53081    1.000
    N1602    N        0.28072    0.10319    0.50694    1.000
    N1603    N        0.33657    0.11709    0.54411    1.000
    N1604    N        0.29183    0.10642    0.61850    1.000
    Si1605   Si       0.28275    0.06470    0.52571    1.000
    Si1606   Si       0.42043    0.09953    0.56416    1.000
    N1607    N        0.45841    0.10298    0.54399    1.000
    N1608    N        0.41870    0.10737    0.60670    1.000
    Si1609   Si       0.46854    0.07058    0.51797    1.000
    Si1610   Si       0.26601    0.08987    0.70282    1.000
    N1611    N        0.28882    0.09339    0.73973    1.000
    N1612    N        0.25799    0.12645    0.68309    1.000
    Si1613   Si       0.41536    0.07268    0.63102    1.000
    N1614    N        0.37820    0.07677    0.65348    1.000
    N1615    N        0.44929    0.07107    0.65882    1.000
    N1616    N        0.36396    0.09886    0.72084    1.000
    Si1617   Si       0.36813    0.11111    0.67865    1.000
    Si1618   Si       0.34488    0.07981    0.80393    1.000
    N1619    N        0.30947    0.07912    0.82934    1.000
    N1620    N        0.35046    0.11964    0.78762    1.000
    Si1621   Si       0.29352    0.11919    0.83383    1.000
    N1622    N        0.26422    0.12418    0.86400    1.000
    Si1623   Si       0.41676    0.10498    0.81349    1.000
    N1624    N        0.45566    0.09834    0.83497    1.000
    N1625    N        0.43332    0.09680    0.77038    1.000
    Si1626   Si       0.45183    0.07271    0.86819    1.000
    N1627    N        0.38602    0.07269    0.81885    1.000
    Si1628   Si       0.48979    0.12360    0.82125    1.000
    N1629    N        0.32594    0.10547    0.97674    1.000
    Si1630   Si       0.26909    0.10261    0.90285    1.000
    N1631    N        0.26392    0.08480    0.94578    1.000
    N1632    N        0.25692    0.12053    0.99501    1.000
    Si1633   Si       0.28942    0.12176    0.95880    1.000
    N1634    N        0.37473    0.10095    0.89697    1.000
    N1635    N        0.41255    0.08542    0.95857    1.000
    N1636    N        0.44422    0.09767    0.90198    1.000
    Si1637   Si       0.40667    0.07908    0.91650    1.000
    Si1638   Si       0.32050    0.15744    0.06491    1.000
    N1639    N        0.33421    0.16129    0.02148    1.000
    N1640    N        0.33463    0.15372    0.10458    1.000
    Si1641   Si       0.35610    0.13057    0.99874    1.000
    Si1642   Si       0.44109    0.14807    0.05504    1.000
    N1643    N        0.46755    0.15423    0.08940    1.000
    Si1644   Si       0.33313    0.15694    0.14621    1.000
    N1645    N        0.33993    0.17163    0.21807    1.000
    N1646    N        0.24374    0.15798    0.14817    1.000
    N1647    N        0.27083    0.18554    0.21034    1.000
    Si1648   Si       0.33597    0.12993    0.21258    1.000
    N1649    N        0.37177    0.17477    0.15684    1.000
    Si1650   Si       0.37915    0.17296    0.23657    1.000
    N1651    N        0.44205    0.14082    0.15883    1.000
    N1652    N        0.41198    0.17384    0.20985    1.000
    Si1653   Si       0.45222    0.17078    0.19238    1.000
    Si1654   Si       0.39705    0.14284    0.17339    1.000
    N1655    N        0.47198    0.14538    0.22203    1.000
    Si1656   Si       0.44588    0.16899    0.12517    1.000
    N1657    N        0.26757    0.15757    0.27485    1.000
    N1658    N        0.32173    0.16076    0.32741    1.000
    Si1659   Si       0.28024    0.16739    0.31723    1.000
    N1660    N        0.24607    0.15362    0.34088    1.000
    Si1661   Si       0.35097    0.13038    0.33346    1.000
    Si1662   Si       0.41274    0.14692    0.29681    1.000
    N1663    N        0.37852    0.14171    0.27008    1.000
    N1664    N        0.39357    0.14478    0.33348    1.000
    N1665    N        0.46348    0.14174    0.35945    1.000
    Si1666   Si       0.47487    0.18355    0.35763    1.000
    Si1667   Si       0.26510    0.14747    0.42774    1.000
    N1668    N        0.26250    0.15888    0.47064    1.000
    N1669    N        0.28115    0.17627    0.39902    1.000
    Si1670   Si       0.24313    0.17337    0.37820    1.000
    N1671    N        0.35068    0.12721    0.37794    1.000
    Si1672   Si       0.48112    0.18027    0.43807    1.000
    Si1673   Si       0.42556    0.15378    0.47633    1.000
    N1674    N        0.38614    0.16987    0.48755    1.000
    N1675    N        0.43959    0.17614    0.44369    1.000
    Si1676   Si       0.39245    0.14428    0.37822    1.000
    N1677    N        0.30920    0.17459    0.51638    1.000
    Si1678   Si       0.26675    0.13793    0.60016    1.000
    Si1679   Si       0.29951    0.13531    0.53032    1.000
    N1680    N        0.26710    0.14259    0.55808    1.000
    N1681    N        0.29454    0.16922    0.61272    1.000
    N1682    N        0.36007    0.13859    0.61027    1.000
    Si1683   Si       0.36110    0.14225    0.56668    1.000
    N1684    N        0.36293    0.18412    0.55883    1.000
    N1685    N        0.44327    0.17008    0.51362    1.000
    Si1686   Si       0.46867    0.14646    0.54052    1.000
    N1687    N        0.40130    0.13454    0.54887    1.000
    N1688    N        0.46913    0.17684    0.57048    1.000
    Si1689   Si       0.40023    0.17461    0.52737    1.000
    N1690    N        0.40988    0.18061    0.61792    1.000
    Si1691   Si       0.32060    0.13846    0.63183    1.000
    N1692    N        0.33808    0.14127    0.67173    1.000
    Si1693   Si       0.32773    0.17426    0.69909    1.000
    N1694    N        0.32482    0.15689    0.73945    1.000
    N1695    N        0.25628    0.15907    0.74223    1.000
    Si1696   Si       0.25238    0.18414    0.70713    1.000
    N1697    N        0.40396    0.13338    0.67021    1.000
    N1698    N        0.47543    0.17146    0.64688    1.000
    Si1699   Si       0.39932    0.14018    0.62786    1.000
    N1700    N        0.46205    0.14238    0.71303    1.000
    N1701    N        0.39426    0.15576    0.73754    1.000
    Si1702   Si       0.42056    0.15296    0.70232    1.000
    N1703    N        0.33108    0.13961    0.84921    1.000
    N1704    N        0.28165    0.13408    0.79504    1.000
    Si1705   Si       0.29070    0.13333    0.75241    1.000
    Si1706   Si       0.35856    0.14957    0.81557    1.000
    Si1707   Si       0.35941    0.13283    0.74720    1.000
    N1708    N        0.44540    0.16756    0.77829    1.000
    N1709    N        0.48144    0.16442    0.83579    1.000
    Si1710   Si       0.45869    0.13111    0.75655    1.000
    N1711    N        0.39448    0.13502    0.83614    1.000
    Si1712   Si       0.40720    0.18712    0.76713    1.000
    N1713    N        0.30170    0.12603    0.91642    1.000
    Si1714   Si       0.31496    0.15607    0.88864    1.000
    N1715    N        0.28539    0.16986    0.96857    1.000
    N1716    N        0.35674    0.16454    0.89878    1.000
    N1717    N        0.24047    0.14558    0.91995    1.000
    Si1718   Si       0.26668    0.18160    0.92909    1.000
    Si1719   Si       0.24950    0.16393    0.99376    1.000
    Si1720   Si       0.41615    0.12241    0.98101    1.000
    Si1721   Si       0.46756    0.12824    0.91924    1.000
    N1722    N        0.47051    0.17068    0.90366    1.000
    N1723    N        0.45038    0.14189    0.95844    1.000
    Si1724   Si       0.36912    0.13410    0.87212    1.000
    Si1725   Si       0.47851    0.12699    0.99111    1.000
    N1726    N        0.38228    0.14875    0.96896    1.000
    Si1727   Si       0.37171    0.17633    0.93739    1.000
    Si1728   Si       0.27927    0.21981    0.04496    1.000
    N1729    N        0.30107    0.19789    0.07439    1.000
    N1730    N        0.30518    0.22532    0.01147    1.000
    Si1731   Si       0.30912    0.21474    0.11681    1.000
    N1732    N        0.25122    0.19002    0.02856    1.000
    Si1733   Si       0.41958    0.21647    0.07459    1.000
    Si1734   Si       0.44763    0.21142    0.01099    1.000
    N1735    N        0.45664    0.23067    0.09129    1.000
    N1736    N        0.42751    0.18852    0.04216    1.000
    N1737    N        0.48763    0.21557    0.02858    1.000
    N1738    N        0.41233    0.18867    0.10795    1.000
    Si1739   Si       0.48620    0.24353    0.06222    1.000
    N1740    N        0.34886    0.23069    0.12280    1.000
    Si1741   Si       0.31200    0.19691    0.19730    1.000
    N1742    N        0.30589    0.19280    0.15535    1.000
    N1743    N        0.32236    0.23641    0.21275    1.000
    Si1744   Si       0.45477    0.23462    0.13338    1.000
    Si1745   Si       0.38450    0.20979    0.13445    1.000
    Si1746   Si       0.48869    0.24098    0.24155    1.000
    N1747    N        0.41439    0.24225    0.14806    1.000
    N1748    N        0.46596    0.19646    0.15524    1.000
    N1749    N        0.28905    0.21011    0.32382    1.000
    Si1750   Si       0.32994    0.20237    0.34183    1.000
    N1751    N        0.27553    0.23127    0.26210    1.000
    Si1752   Si       0.25732    0.19276    0.25177    1.000
    Si1753   Si       0.26551    0.23889    0.30447    1.000
    N1754    N        0.36986    0.21397    0.32685    1.000
    Si1755   Si       0.39635    0.21823    0.29081    1.000
    N1756    N        0.44406    0.21729    0.35358    1.000
    Si1757   Si       0.39990    0.21947    0.35866    1.000
    Si1758   Si       0.47085    0.19952    0.28668    1.000
    N1759    N        0.37567    0.21419    0.25345    1.000
    N1760    N        0.42850    0.18830    0.28833    1.000
    N1761    N        0.46344    0.24302    0.27604    1.000
    N1762    N        0.32810    0.22740    0.37936    1.000
    N1763    N        0.32244    0.19677    0.45341    1.000
    N1764    N        0.26984    0.23330    0.42591    1.000
    Si1765   Si       0.30404    0.20982    0.41155    1.000
    Si1766   Si       0.28794    0.19259    0.48073    1.000
    Si1767   Si       0.36192    0.20335    0.47202    1.000
    N1768    N        0.27481    0.22803    0.49947    1.000
    N1769    N        0.44096    0.23761    0.41664    1.000
    Si1770   Si       0.41399    0.20282    0.42294    1.000
    N1771    N        0.38730    0.22861    0.44699    1.000
    N1772    N        0.39411    0.18657    0.38741    1.000
    N1773    N        0.31574    0.22697    0.56805    1.000
    Si1774   Si       0.33205    0.20545    0.53645    1.000
    Si1775   Si       0.28720    0.20772    0.59610    1.000
    N1776    N        0.35442    0.22877    0.50735    1.000
    N1777    N        0.24814    0.22851    0.59101    1.000
    Si1778   Si       0.45505    0.20615    0.53882    1.000
    N1779    N        0.41543    0.21191    0.55000    1.000
    Si1780   Si       0.39159    0.20402    0.58551    1.000
    N1781    N        0.37664    0.23289    0.61227    1.000
    N1782    N        0.48295    0.23836    0.53341    1.000
    Si1783   Si       0.28570    0.22852    0.66820    1.000
    N1784    N        0.35148    0.21181    0.70522    1.000
    N1785    N        0.25180    0.22306    0.72974    1.000
    N1786    N        0.30570    0.23400    0.62982    1.000
    N1787    N        0.28969    0.18996    0.68581    1.000
    N1788    N        0.24370    0.23669    0.65872    1.000
    N1789    N        0.40459    0.22337    0.74483    1.000
    Si1790   Si       0.39449    0.22021    0.70397    1.000
    Si1791   Si       0.43873    0.19555    0.64849    1.000
    N1792    N        0.44650    0.23509    0.63546    1.000
    N1793    N        0.42274    0.19280    0.68841    1.000
    N1794    N        0.32167    0.22300    0.82813    1.000
    Si1795   Si       0.29531    0.22067    0.86229    1.000
    N1796    N        0.25672    0.23621    0.84768    1.000
    Si1797   Si       0.36523    0.21994    0.82056    1.000
    N1798    N        0.43844    0.22586    0.81008    1.000
    N1799    N        0.38705    0.22819    0.85712    1.000
    Si1800   Si       0.46672    0.19363    0.80508    1.000
    N1801    N        0.37463    0.18499    0.79691    1.000
    N1802    N        0.34611    0.20403    0.95930    1.000
    N1803    N        0.28973    0.19010    0.89256    1.000
    Si1804   Si       0.31859    0.19010    0.98934    1.000
    Si1805   Si       0.40332    0.23097    0.89768    1.000
    Si1806   Si       0.44649    0.18132    0.94013    1.000
    N1807    N        0.46025    0.21050    0.96856    1.000
    N1808    N        0.40854    0.19765    0.92446    1.000
    N1809    N        0.32904    0.29027    0.08673    1.000
    Si1810   Si       0.29362    0.29143    0.11147    1.000
    Si1811   Si       0.25778    0.29013    0.04283    1.000
    N1812    N        0.29834    0.29024    0.02637    1.000
    N1813    N        0.24994    0.24955    0.05763    1.000
    N1814    N        0.28184    0.25053    0.11830    1.000
    Si1815   Si       0.36431    0.26863    0.10206    1.000
    Si1816   Si       0.24346    0.24481    0.10049    1.000
    N1817    N        0.38766    0.24772    0.07199    1.000
    Si1818   Si       0.45087    0.28202    0.01141    1.000
    N1819    N        0.46930    0.28122    0.05021    1.000
    Si1820   Si       0.38501    0.26317    0.02978    1.000
    N1821    N        0.42386    0.24709    0.01580    1.000
    N1822    N        0.36617    0.30554    0.03189    1.000
    Si1823   Si       0.28907    0.25824    0.22982    1.000
    N1824    N        0.25407    0.27024    0.20284    1.000
    Si1825   Si       0.36153    0.24968    0.23371    1.000
    N1826    N        0.46602    0.26040    0.20879    1.000
    N1827    N        0.38062    0.29962    0.13006    1.000
    N1828    N        0.39204    0.26705    0.20782    1.000
    Si1829   Si       0.39843    0.27893    0.16404    1.000
    Si1830   Si       0.43161    0.28353    0.21424    1.000
    N1831    N        0.48535    0.26811    0.13873    1.000
    N1832    N        0.34203    0.28347    0.33378    1.000
    N1833    N        0.27128    0.27971    0.32295    1.000
    N1834    N        0.35271    0.27941    0.26448    1.000
    Si1835   Si       0.24769    0.29648    0.35604    1.000
    Si1836   Si       0.37312    0.28784    0.30310    1.000
    Si1837   Si       0.44290    0.27921    0.28868    1.000
    N1838    N        0.40679    0.25958    0.30150    1.000
    N1839    N        0.47875    0.29612    0.30592    1.000
    N1840    N        0.45341    0.28944    0.37002    1.000
    N1841    N        0.43176    0.30461    0.25201    1.000
    Si1842   Si       0.34877    0.26640    0.37380    1.000
    N1843    N        0.28464    0.28886    0.46737    1.000
    Si1844   Si       0.26643    0.27534    0.43135    1.000
    N1845    N        0.34284    0.29719    0.40550    1.000
    N1846    N        0.27256    0.29641    0.39446    1.000
    N1847    N        0.41132    0.29792    0.43320    1.000
    Si1848   Si       0.41446    0.29446    0.38898    1.000
    N1849    N        0.39182    0.26045    0.37476    1.000
    Si1850   Si       0.42054    0.25697    0.44871    1.000
    N1851    N        0.44920    0.27202    0.47466    1.000
    Si1852   Si       0.46100    0.24792    0.37926    1.000
    N1853    N        0.33872    0.28935    0.59074    1.000
    Si1854   Si       0.27521    0.26918    0.50662    1.000
    N1855    N        0.29830    0.29658    0.53236    1.000
    Si1856   Si       0.33755    0.24619    0.60133    1.000
    Si1857   Si       0.24873    0.25889    0.62024    1.000
    Si1858   Si       0.48107    0.27031    0.50507    1.000
    N1859    N        0.47239    0.29120    0.60166    1.000
    N1860    N        0.40527    0.29527    0.62094    1.000
    N1861    N        0.29866    0.26093    0.69477    1.000
    N1862    N        0.27421    0.29263    0.63654    1.000
    Si1863   Si       0.30452    0.29545    0.66621    1.000
    Si1864   Si       0.27306    0.25948    0.73194    1.000
    N1865    N        0.25178    0.29682    0.73162    1.000
    Si1866   Si       0.33322    0.24929    0.72180    1.000
    N1867    N        0.34786    0.29693    0.65881    1.000
    N1868    N        0.36366    0.27851    0.72976    1.000
    Si1869   Si       0.48414    0.25585    0.62771    1.000
    N1870    N        0.46778    0.26545    0.71296    1.000
    Si1871   Si       0.44069    0.29781    0.71848    1.000
    N1872    N        0.39722    0.25524    0.67686    1.000
    Si1873   Si       0.40727    0.25391    0.63474    1.000
    Si1874   Si       0.37867    0.29318    0.69122    1.000
    Si1875   Si       0.32330    0.25788    0.79905    1.000
    N1876    N        0.30710    0.25054    0.75919    1.000
    Si1877   Si       0.26302    0.27525    0.86759    1.000
    N1878    N        0.31802    0.29296    0.82281    1.000
    Si1879   Si       0.32928    0.29701    0.86665    1.000
    N1880    N        0.36633    0.25624    0.79510    1.000
    Si1881   Si       0.39279    0.26258    0.76181    1.000
    N1882    N        0.42427    0.29101    0.76065    1.000
    Si1883   Si       0.42398    0.24968    0.84194    1.000
    N1884    N        0.42103    0.29218    0.82943    1.000
    N1885    N        0.48375    0.29704    0.86418    1.000
    N1886    N        0.30446    0.26102    0.87747    1.000
    N1887    N        0.31223    0.26363    0.95032    1.000
    N1888    N        0.24982    0.27450    0.90841    1.000
    Si1889   Si       0.28644    0.29018    0.92751    1.000
    Si1890   Si       0.35303    0.24648    0.95179    1.000
    N1891    N        0.36194    0.26305    0.98989    1.000
    Si1892   Si       0.31455    0.26583    0.99411    1.000
    N1893    N        0.43928    0.25011    0.88259    1.000
    N1894    N        0.48528    0.27683    0.98496    1.000
    Si1895   Si       0.48225    0.25757    0.88244    1.000
    N1896    N        0.38182    0.26062    0.92369    1.000
    Si1897   Si       0.32675    0.31337    0.04958    1.000
    N1898    N        0.32658    0.35612    0.05106    1.000
    N1899    N        0.33802    0.35626    0.11605    1.000
    N1900    N        0.26257    0.30828    0.08559    1.000
    N1901    N        0.40532    0.34612    0.07786    1.000
    Si1902   Si       0.39653    0.33500    0.03753    1.000
    N1903    N        0.46948    0.34788    0.05106    1.000
    N1904    N        0.42147    0.31342    0.00503    1.000
    Si1905   Si       0.37971    0.34213    0.11566    1.000
    Si1906   Si       0.44526    0.36285    0.08497    1.000
    Si1907   Si       0.27698    0.30838    0.18978    1.000
    N1908    N        0.25213    0.34313    0.19556    1.000
    N1909    N        0.29081    0.31518    0.14752    1.000
    Si1910   Si       0.30890    0.35422    0.14738    1.000
    Si1911   Si       0.24369    0.35308    0.23764    1.000
    N1912    N        0.30434    0.30009    0.22507    1.000
    Si1913   Si       0.43623    0.34981    0.15835    1.000
    N1914    N        0.46129    0.34826    0.12250    1.000
    N1915    N        0.36456    0.34614    0.24153    1.000
    N1916    N        0.42847    0.31022    0.17608    1.000
    N1917    N        0.31184    0.33114    0.28981    1.000
    N1918    N        0.30648    0.33738    0.35750    1.000
    Si1919   Si       0.33195    0.31895    0.25301    1.000
    Si1920   Si       0.30671    0.30661    0.32514    1.000
    Si1921   Si       0.48118    0.31302    0.34550    1.000
    Si1922   Si       0.40477    0.33719    0.26307    1.000
    N1923    N        0.39810    0.32473    0.30411    1.000
    Si1924   Si       0.41807    0.34916    0.33578    1.000
    N1925    N        0.46247    0.35115    0.34336    1.000
    N1926    N        0.40040    0.33540    0.37467    1.000
    N1927    N        0.35134    0.31461    0.47414    1.000
    N1928    N        0.30492    0.34588    0.43425    1.000
    Si1929   Si       0.30724    0.32577    0.47194    1.000
    Si1930   Si       0.30699    0.32156    0.39870    1.000
    Si1931   Si       0.36967    0.31628    0.43434    1.000
    N1932    N        0.37589    0.35829    0.43063    1.000
    Si1933   Si       0.44154    0.31443    0.46269    1.000
    N1934    N        0.41897    0.33328    0.49505    1.000
    N1935    N        0.47993    0.33361    0.45849    1.000
    N1936    N        0.30010    0.34701    0.57108    1.000
    Si1937   Si       0.27289    0.33503    0.53662    1.000
    Si1938   Si       0.32942    0.31356    0.55694    1.000
    N1939    N        0.24644    0.35970    0.61411    1.000
    N1940    N        0.28103    0.35059    0.49794    1.000
    N1941    N        0.36430    0.33101    0.53996    1.000
    Si1942   Si       0.36375    0.31062    0.62138    1.000
    N1943    N        0.37327    0.34908    0.60695    1.000
    N1944    N        0.42498    0.33669    0.56664    1.000
    Si1945   Si       0.43711    0.32005    0.60473    1.000
    Si1946   Si       0.44606    0.33886    0.52789    1.000
    Si1947   Si       0.38800    0.35491    0.56640    1.000
    N1948    N        0.47175    0.30426    0.53028    1.000
    Si1949   Si       0.37692    0.34140    0.49799    1.000
    N1950    N        0.29140    0.33138    0.68538    1.000
    Si1951   Si       0.25207    0.32821    0.70358    1.000
    Si1952   Si       0.23967    0.31999    0.63037    1.000
    N1953    N        0.41307    0.31976    0.69265    1.000
    Si1954   Si       0.42413    0.35792    0.67171    1.000
    N1955    N        0.44167    0.34969    0.63515    1.000
    N1956    N        0.46571    0.33235    0.72949    1.000
    Si1957   Si       0.29339    0.33074    0.82310    1.000
    N1958    N        0.29380    0.35152    0.78497    1.000
    N1959    N        0.25859    0.31544    0.84748    1.000
    Si1960   Si       0.40457    0.32248    0.85595    1.000
    N1961    N        0.43174    0.35523    0.79265    1.000
    Si1962   Si       0.44066    0.30987    0.79527    1.000
    N1963    N        0.48327    0.31743    0.79300    1.000
    N1964    N        0.31010    0.31718    0.90203    1.000
    N1965    N        0.27049    0.31621    0.95954    1.000
    Si1966   Si       0.38031    0.30584    0.98678    1.000
    N1967    N        0.37008    0.30486    0.87604    1.000
    Si1968   Si       0.39091    0.30353    0.91414    1.000
    N1969    N        0.42712    0.32077    0.89520    1.000
    Si1970   Si       0.46807    0.33189    0.88617    1.000
    N1971    N        0.37886    0.32595    0.95073    1.000
    Si1972   Si       0.33257    0.38495    0.08351    1.000
    Si1973   Si       0.33886    0.37699    0.01261    1.000
    Si1974   Si       0.27011    0.41877    0.11827    1.000
    N1975    N        0.30789    0.41960    0.09626    1.000
    N1976    N        0.32578    0.41811    0.01608    1.000
    N1977    N        0.23389    0.41574    0.09765    1.000
    N1978    N        0.36932    0.41255    0.08627    1.000
    N1979    N        0.44128    0.40594    0.08300    1.000
    Si1980   Si       0.48123    0.36831    0.01525    1.000
    N1981    N        0.38177    0.36924    0.01416    1.000
    Si1982   Si       0.40728    0.40110    0.99776    1.000
    N1983    N        0.44999    0.39541    0.99774    1.000
    Si1984   Si       0.35736    0.37729    0.21325    1.000
    N1985    N        0.27585    0.38190    0.14099    1.000
    Si1986   Si       0.29670    0.38955    0.21231    1.000
    N1987    N        0.33333    0.41006    0.22574    1.000
    N1988    N        0.32126    0.36271    0.18733    1.000
    N1989    N        0.39167    0.39878    0.19736    1.000
    N1990    N        0.45480    0.37468    0.19044    1.000
    Si1991   Si       0.42838    0.39499    0.21836    1.000
    N1992    N        0.40189    0.37112    0.14019    1.000
    Si1993   Si       0.39562    0.41211    0.15526    1.000
    N1994    N        0.27262    0.39312    0.31910    1.000
    N1995    N        0.33398    0.39279    0.29377    1.000
    Si1996   Si       0.29620    0.37299    0.28641    1.000
    Si1997   Si       0.27263    0.36753    0.35213    1.000
    N1998    N        0.28073    0.37259    0.24811    1.000
    Si1999   Si       0.42140    0.40745    0.28668    1.000
    N2000    N        0.40673    0.39021    0.32489    1.000
    N2001    N        0.42588    0.37527    0.25718    1.000
    N2002    N        0.47184    0.41780    0.35961    1.000
    N2003    N        0.33063    0.41282    0.42478    1.000
    N2004    N        0.26863    0.38401    0.39126    1.000
    Si2005   Si       0.29444    0.38828    0.42673    1.000
    N2006    N        0.27684    0.41314    0.45926    1.000
    N2007    N        0.35491    0.37904    0.49062    1.000
    Si2008   Si       0.36108    0.39339    0.44962    1.000
    Si2009   Si       0.47248    0.37843    0.37405    1.000
    Si2010   Si       0.47895    0.37087    0.43567    1.000
    Si2011   Si       0.40304    0.37088    0.39946    1.000
    N2012    N        0.48133    0.40929    0.45742    1.000
    N2013    N        0.39412    0.41466    0.38864    1.000
    N2014    N        0.44488    0.37223    0.40867    1.000
    Si2015   Si       0.34775    0.40650    0.52191    1.000
    N2016    N        0.28502    0.41230    0.59856    1.000
    N2017    N        0.30554    0.40544    0.52829    1.000
    Si2018   Si       0.28831    0.37043    0.60620    1.000
    Si2019   Si       0.27531    0.39316    0.49822    1.000
    N2020    N        0.36735    0.42550    0.61367    1.000
    N2021    N        0.46760    0.37637    0.52174    1.000
    N2022    N        0.37664    0.39593    0.55190    1.000
    Si2023   Si       0.47081    0.41461    0.49964    1.000
    N2024    N        0.43275    0.41281    0.58855    1.000
    N2025    N        0.28490    0.40352    0.67515    1.000
    N2026    N        0.33072    0.37624    0.71669    1.000
    Si2027   Si       0.27312    0.41458    0.71564    1.000
    Si2028   Si       0.30918    0.36834    0.67848    1.000
    N2029    N        0.32122    0.36954    0.63555    1.000
    N2030    N        0.24514    0.36397    0.72731    1.000
    Si2031   Si       0.36248    0.38477    0.62895    1.000
    N2032    N        0.45153    0.38767    0.68972    1.000
    Si2033   Si       0.43103    0.41174    0.72178    1.000
    N2034    N        0.39602    0.39160    0.73607    1.000
    Si2035   Si       0.36715    0.39428    0.70430    1.000
    N2036    N        0.38089    0.37640    0.66790    1.000
    Si2037   Si       0.48043    0.37076    0.71908    1.000
    Si2038   Si       0.48575    0.41757    0.67703    1.000
    Si2039   Si       0.32097    0.37520    0.76040    1.000
    N2040    N        0.35721    0.37666    0.78898    1.000
    Si2041   Si       0.35468    0.37858    0.83292    1.000
    N2042    N        0.28900    0.40643    0.75533    1.000
    Si2043   Si       0.25450    0.36739    0.77241    1.000
    N2044    N        0.24103    0.40154    0.79712    1.000
    N2045    N        0.36250    0.41942    0.84680    1.000
    N2046    N        0.32086    0.35433    0.84954    1.000
    Si2047   Si       0.43284    0.38540    0.83407    1.000
    Si2048   Si       0.39907    0.38016    0.77681    1.000
    N2049    N        0.48109    0.39597    0.80893    1.000
    N2050    N        0.41796    0.41425    0.80198    1.000
    N2051    N        0.46631    0.36860    0.86182    1.000
    N2052    N        0.46127    0.39862    0.74815    1.000
    N2053    N        0.39435    0.36415    0.84647    1.000
    Si2054   Si       0.47185    0.36334    0.77603    1.000
    N2055    N        0.25469    0.38056    0.97180    1.000
    N2056    N        0.29176    0.38071    0.91996    1.000
    N2057    N        0.35581    0.37482    0.90401    1.000
    Si2058   Si       0.28685    0.35744    0.95760    1.000
    N2059    N        0.32605    0.36029    0.97430    1.000
    Si2060   Si       0.36301    0.36642    0.94963    1.000
    Si2061   Si       0.31642    0.35813    0.89244    1.000
    N2062    N        0.47448    0.40076    0.93255    1.000
    N2063    N        0.42577    0.41302    0.87664    1.000
    N2064    N        0.38510    0.40293    0.96006    1.000
    Si2065   Si       0.46950    0.40600    0.88856    1.000
    Si2066   Si       0.38349    0.40093    0.88228    1.000
    Si2067   Si       0.34445    0.44234    0.10632    1.000
    Si2068   Si       0.25591    0.47169    0.03044    1.000
    N2069    N        0.27663    0.47862    0.06843    1.000
    Si2070   Si       0.38147    0.47276    0.01464    1.000
    N2071    N        0.41738    0.46244    0.08718    1.000
    N2072    N        0.39908    0.43458    0.02446    1.000
    Si2073   Si       0.44874    0.43962    0.10958    1.000
    Si2074   Si       0.40574    0.42613    0.06629    1.000
    Si2075   Si       0.35577    0.47646    0.17256    1.000
    Si2076   Si       0.27898    0.45873    0.17975    1.000
    N2077    N        0.27203    0.45894    0.13699    1.000
    Si2078   Si       0.33649    0.45288    0.22815    1.000
    N2079    N        0.31588    0.47577    0.19665    1.000
    N2080    N        0.36270    0.44156    0.14722    1.000
    N2081    N        0.27027    0.42150    0.20059    1.000
    N2082    N        0.44361    0.43585    0.22293    1.000
    N2083    N        0.43606    0.43213    0.14956    1.000
    Si2084   Si       0.40820    0.46035    0.23695    1.000
    N2085    N        0.37463    0.46728    0.21006    1.000
    Si2086   Si       0.46311    0.44638    0.18069    1.000
    N2087    N        0.32738    0.46263    0.26974    1.000
    Si2088   Si       0.35197    0.43101    0.28837    1.000
    N2089    N        0.25230    0.46793    0.33695    1.000
    Si2090   Si       0.24269    0.42671    0.32500    1.000
    N2091    N        0.35766    0.44052    0.32995    1.000
    Si2092   Si       0.46301    0.44790    0.32891    1.000
    N2093    N        0.42183    0.45746    0.34102    1.000
    N2094    N        0.39131    0.43389    0.26983    1.000
    Si2095   Si       0.39362    0.42462    0.34715    1.000
    N2096    N        0.45904    0.42917    0.28940    1.000
    Si2097   Si       0.47871    0.43335    0.25126    1.000
    N2098    N        0.31248    0.46913    0.37704    1.000
    N2099    N        0.25226    0.44871    0.40472    1.000
    Si2100   Si       0.33036    0.45540    0.41310    1.000
    Si2101   Si       0.26765    0.45444    0.44578    1.000
    N2102    N        0.24141    0.47520    0.47345    1.000
    N2103    N        0.30531    0.47664    0.44332    1.000
    Si2104   Si       0.27130    0.47695    0.37729    1.000
    Si2105   Si       0.39618    0.44613    0.48851    1.000
    N2106    N        0.44567    0.45975    0.43260    1.000
    N2107    N        0.39321    0.42161    0.45470    1.000
    N2108    N        0.37034    0.47202    0.41698    1.000
    Si2109   Si       0.40466    0.44410    0.42042    1.000
    N2110    N        0.32275    0.45994    0.56767    1.000
    N2111    N        0.25779    0.45226    0.54222    1.000
    Si2112   Si       0.33939    0.45900    0.60873    1.000
    Si2113   Si       0.28977    0.43048    0.56064    1.000
    N2114    N        0.35887    0.44725    0.51091    1.000
    Si2115   Si       0.33675    0.47816    0.53152    1.000
    N2116    N        0.46739    0.47363    0.57613    1.000
    Si2117   Si       0.44158    0.46716    0.54118    1.000
    Si2118   Si       0.46969    0.43236    0.59571    1.000
    N2119    N        0.40415    0.46508    0.56260    1.000
    N2120    N        0.43361    0.43487    0.51145    1.000
    Si2121   Si       0.39268    0.42658    0.57855    1.000
    Si2122   Si       0.32726    0.45385    0.68025    1.000
    N2123    N        0.31123    0.45498    0.64077    1.000
    N2124    N        0.29476    0.45400    0.70877    1.000
    Si2125   Si       0.27771    0.42967    0.63936    1.000
    N2126    N        0.36184    0.43545    0.69535    1.000
    N2127    N        0.48486    0.42604    0.63502    1.000
    Si2128   Si       0.38940    0.47086    0.70152    1.000
    Si2129   Si       0.46466    0.47484    0.72544    1.000
    N2130    N        0.42739    0.45349    0.71442    1.000
    N2131    N        0.25879    0.46765    0.76597    1.000
    N2132    N        0.29435    0.44533    0.81854    1.000
    Si2133   Si       0.26914    0.43187    0.78542    1.000
    Si2134   Si       0.27528    0.45322    0.85752    1.000
    N2135    N        0.23706    0.43196    0.85873    1.000
    N2136    N        0.36049    0.46414    0.79435    1.000
    Si2137   Si       0.32422    0.47764    0.81329    1.000
    Si2138   Si       0.38876    0.44317    0.81947    1.000
    N2139    N        0.46871    0.46197    0.76544    1.000
    N2140    N        0.40977    0.46912    0.84705    1.000
    Si2141   Si       0.45843    0.42448    0.78378    1.000
    Si2142   Si       0.34489    0.44963    0.87425    1.000
    N2143    N        0.30508    0.43820    0.88527    1.000
    N2144    N        0.25869    0.44478    0.92911    1.000
    N2145    N        0.32482    0.44205    0.95241    1.000
    Si2146   Si       0.29518    0.42325    0.92558    1.000
    N2147    N        0.27648    0.47164    0.99278    1.000
    Si2148   Si       0.31510    0.45298    0.99439    1.000
    N2149    N        0.37559    0.44003    0.90355    1.000
    Si2150   Si       0.36764    0.43967    0.94687    1.000
    Si2151   Si       0.46754    0.42354    0.96966    1.000
    N2152    N        0.45377    0.46573    0.96270    1.000
    N2153    N        0.38494    0.46948    0.97195    1.000
    Si2154   Si       0.42042    0.45719    0.88845    1.000
    N2155    N        0.46852    0.45863    0.89179    1.000
    Si2156   Si       0.26074    0.48989    0.10778    1.000
    Si2157   Si       0.31756    0.48882    0.05664    1.000
    N2158    N        0.31215    0.53163    0.05028    1.000
    N2159    N        0.33889    0.48480    0.01754    1.000
    Si2160   Si       0.33701    0.53473    0.01617    1.000
    N2161    N        0.34498    0.48303    0.09111    1.000
    N2162    N        0.28190    0.52792    0.11885    1.000
    Si2163   Si       0.36667    0.51765    0.10926    1.000
    N2164    N        0.40710    0.53153    0.09862    1.000
    Si2165   Si       0.42625    0.50123    0.07033    1.000
    N2166    N        0.40470    0.50318    0.03363    1.000
    N2167    N        0.46995    0.50147    0.06810    1.000
    Si2168   Si       0.29439    0.51037    0.21204    1.000
    N2169    N        0.25694    0.49117    0.19877    1.000
    Si2170   Si       0.45894    0.53104    0.17387    1.000
    N2171    N        0.37038    0.51218    0.15410    1.000
    N2172    N        0.42215    0.50077    0.24464    1.000
    Si2173   Si       0.46265    0.49996    0.22609    1.000
    N2174    N        0.46118    0.48817    0.18471    1.000
    Si2175   Si       0.32252    0.50376    0.28015    1.000
    N2176    N        0.31432    0.50264    0.32103    1.000
    N2177    N        0.29926    0.52547    0.25182    1.000
    Si2178   Si       0.33850    0.47728    0.34512    1.000
    N2179    N        0.36284    0.52157    0.27503    1.000
    N2180    N        0.37212    0.50386    0.35094    1.000
    Si2181   Si       0.41627    0.49892    0.34585    1.000
    Si2182   Si       0.48273    0.51746    0.35970    1.000
    N2183    N        0.41687    0.53180    0.31615    1.000
    N2184    N        0.48853    0.48242    0.33410    1.000
    Si2185   Si       0.39195    0.53652    0.24812    1.000
    Si2186   Si       0.37192    0.53100    0.31665    1.000
    N2187    N        0.25912    0.51755    0.39390    1.000
    N2188    N        0.34919    0.53077    0.46992    1.000
    Si2189   Si       0.30897    0.51248    0.46890    1.000
    N2190    N        0.45319    0.53039    0.43944    1.000
    N2191    N        0.40245    0.48651    0.47393    1.000
    N2192    N        0.44185    0.51657    0.37539    1.000
    Si2193   Si       0.44562    0.49302    0.46284    1.000
    Si2194   Si       0.37647    0.50583    0.44577    1.000
    N2195    N        0.30365    0.49394    0.50786    1.000
    N2196    N        0.36073    0.51370    0.53907    1.000
    Si2197   Si       0.26171    0.48577    0.51214    1.000
    N2198    N        0.24253    0.51788    0.53363    1.000
    N2199    N        0.36562    0.49464    0.60875    1.000
    Si2200   Si       0.38754    0.50493    0.57310    1.000
    N2201    N        0.45204    0.49798    0.50929    1.000
    Si2202   Si       0.48265    0.50639    0.59858    1.000
    N2203    N        0.41814    0.53255    0.56112    1.000
    Si2204   Si       0.43416    0.53726    0.52090    1.000
    N2205    N        0.25012    0.49907    0.69695    1.000
    N2206    N        0.34351    0.49398    0.67872    1.000
    Si2207   Si       0.34438    0.51786    0.71557    1.000
    N2208    N        0.30664    0.51682    0.73288    1.000
    Si2209   Si       0.27618    0.48517    0.73052    1.000
    N2210    N        0.46444    0.51474    0.70412    1.000
    N2211    N        0.40523    0.49907    0.67052    1.000
    Si2212   Si       0.43516    0.52885    0.66075    1.000
    N2213    N        0.46563    0.50396    0.64036    1.000
    N2214    N        0.37353    0.49215    0.73541    1.000
    Si2215   Si       0.37277    0.51443    0.64703    1.000
    N2216    N        0.29433    0.50820    0.80462    1.000
    Si2217   Si       0.25188    0.50111    0.79267    1.000
    N2218    N        0.33407    0.48902    0.85541    1.000
    N2219    N        0.24488    0.53227    0.76292    1.000
    N2220    N        0.35898    0.53033    0.79280    1.000
    Si2221   Si       0.30438    0.51858    0.86837    1.000
    N2222    N        0.26515    0.49521    0.86516    1.000
    Si2223   Si       0.38199    0.49808    0.77661    1.000
    Si2224   Si       0.43791    0.49953    0.83148    1.000
    N2225    N        0.42096    0.50734    0.79055    1.000
    N2226    N        0.43893    0.53264    0.85919    1.000
    N2227    N        0.47960    0.48262    0.82514    1.000
    N2228    N        0.48080    0.53521    0.77905    1.000
    N2229    N        0.26448    0.52209    0.95030    1.000
    Si2230   Si       0.25357    0.48027    0.95451    1.000
    N2231    N        0.41877    0.49469    0.91478    1.000
    Si2232   Si       0.43854    0.53136    0.90254    1.000
    Si2233   Si       0.41917    0.49407    0.95761    1.000
    Si2234   Si       0.47854    0.48290    0.92873    1.000
    N2235    N        0.47530    0.52743    0.92693    1.000
    N2236    N        0.34285    0.55606    0.10528    1.000
    Si2237   Si       0.30257    0.55065    0.08755    1.000
    N2238    N        0.28023    0.58656    0.08341    1.000
    Si2239   Si       0.35933    0.59239    0.11989    1.000
    N2240    N        0.37019    0.56237    0.02259    1.000
    N2241    N        0.44453    0.55979    0.03885    1.000
    N2242    N        0.46886    0.56338    0.10326    1.000
    Si2243   Si       0.47535    0.54368    0.06466    1.000
    Si2244   Si       0.42759    0.56481    0.11757    1.000
    Si2245   Si       0.41041    0.54489    0.01648    1.000
    Si2246   Si       0.27254    0.55083    0.15591    1.000
    Si2247   Si       0.33426    0.57373    0.19815    1.000
    N2248    N        0.30362    0.54522    0.18677    1.000
    N2249    N        0.28107    0.59258    0.14989    1.000
    N2250    N        0.36334    0.58747    0.16379    1.000
    Si2251   Si       0.38560    0.54790    0.17490    1.000
    N2252    N        0.36962    0.54897    0.21341    1.000
    N2253    N        0.46890    0.54262    0.21686    1.000
    N2254    N        0.42613    0.55423    0.15979    1.000
    Si2255   Si       0.47069    0.58330    0.23506    1.000
    Si2256   Si       0.27770    0.55338    0.27580    1.000
    N2257    N        0.35504    0.56785    0.33345    1.000
    N2258    N        0.30452    0.58894    0.28318    1.000
    N2259    N        0.24320    0.56694    0.24986    1.000
    N2260    N        0.30050    0.59007    0.35343    1.000
    N2261    N        0.25090    0.53843    0.30613    1.000
    Si2262   Si       0.33737    0.57798    0.37361    1.000
    Si2263   Si       0.43605    0.56430    0.29741    1.000
    N2264    N        0.40883    0.57370    0.26334    1.000
    N2265    N        0.47286    0.56783    0.27683    1.000
    N2266    N        0.48099    0.55549    0.33982    1.000
    Si2267   Si       0.27810    0.55170    0.41694    1.000
    N2268    N        0.32421    0.55614    0.40908    1.000
    Si2269   Si       0.35543    0.56278    0.43759    1.000
    Si2270   Si       0.25927    0.56860    0.48849    1.000
    N2271    N        0.27502    0.53930    0.46068    1.000
    N2272    N        0.27033    0.59571    0.41304    1.000
    N2273    N        0.39106    0.53931    0.42355    1.000
    Si2274   Si       0.42951    0.54640    0.40660    1.000
    N2275    N        0.44410    0.58441    0.39041    1.000
    N2276    N        0.34036    0.58259    0.52451    1.000
    N2277    N        0.26513    0.58045    0.53399    1.000
    N2278    N        0.29602    0.55397    0.58544    1.000
    Si2279   Si       0.31572    0.58241    0.56078    1.000
    Si2280   Si       0.25876    0.54772    0.56194    1.000
    Si2281   Si       0.36388    0.54597    0.50933    1.000
    N2282    N        0.34334    0.59052    0.59523    1.000
    N2283    N        0.47261    0.54940    0.59425    1.000
    N2284    N        0.47071    0.56050    0.51835    1.000
    Si2285   Si       0.43082    0.55804    0.59254    1.000
    N2286    N        0.41146    0.59529    0.59625    1.000
    N2287    N        0.40271    0.56555    0.50185    1.000
    Si2288   Si       0.37798    0.57791    0.62134    1.000
    Si2289   Si       0.24128    0.56317    0.63275    1.000
    Si2290   Si       0.25670    0.54323    0.68966    1.000
    Si2291   Si       0.31128    0.56750    0.62419    1.000
    N2292    N        0.27615    0.57398    0.71435    1.000
    Si2293   Si       0.34672    0.58007    0.67946    1.000
    N2294    N        0.34694    0.54959    0.64459    1.000
    N2295    N        0.27660    0.54561    0.64847    1.000
    N2296    N        0.36652    0.55460    0.70830    1.000
    N2297    N        0.40817    0.54412    0.62778    1.000
    Si2298   Si       0.46175    0.55828    0.71624    1.000
    Si2299   Si       0.39002    0.58381    0.73246    1.000
    N2300    N        0.42808    0.56356    0.74296    1.000
    N2301    N        0.44156    0.56878    0.67728    1.000
    N2302    N        0.30632    0.57061    0.77895    1.000
    N2303    N        0.31319    0.55753    0.84539    1.000
    Si2304   Si       0.32036    0.54149    0.80614    1.000
    Si2305   Si       0.28311    0.54979    0.75005    1.000
    Si2306   Si       0.45229    0.57250    0.84511    1.000
    N2307    N        0.43281    0.57901    0.80720    1.000
    Si2308   Si       0.43868    0.54571    0.77861    1.000
    N2309    N        0.32404    0.54164    0.97708    1.000
    N2310    N        0.27612    0.58020    0.93434    1.000
    Si2311   Si       0.32938    0.57547    0.88069    1.000
    Si2312   Si       0.30051    0.54405    0.94266    1.000
    Si2313   Si       0.24492    0.55969    0.95797    1.000
    N2314    N        0.31849    0.54033    0.90433    1.000
    N2315    N        0.41171    0.56362    0.91583    1.000
    N2316    N        0.46415    0.59206    0.95235    1.000
    Si2317   Si       0.42088    0.57951    0.95821    1.000
    N2318    N        0.41783    0.53610    0.97410    1.000
    N2319    N        0.33179    0.62524    0.11120    1.000
    N2320    N        0.30333    0.64058    0.04620    1.000
    Si2321   Si       0.33617    0.64562    0.07344    1.000
    Si2322   Si       0.28766    0.61547    0.11431    1.000
    Si2323   Si       0.31622    0.65143    0.00604    1.000
    N2324    N        0.26382    0.65060    0.10323    1.000
    Si2325   Si       0.26635    0.65960    0.06040    1.000
    N2326    N        0.37305    0.62990    0.05495    1.000
    Si2327   Si       0.40416    0.63455    0.08400    1.000
    N2328    N        0.44065    0.63244    0.05971    1.000
    Si2329   Si       0.37565    0.60715    0.01643    1.000
    Si2330   Si       0.44754    0.60307    0.02883    1.000
    N2331    N        0.40085    0.60031    0.11097    1.000
    N2332    N        0.25641    0.65144    0.17131    1.000
    Si2333   Si       0.27271    0.61356    0.18808    1.000
    N2334    N        0.30781    0.60499    0.21342    1.000
    Si2335   Si       0.37910    0.62991    0.17109    1.000
    N2336    N        0.37813    0.62678    0.21653    1.000
    Si2337   Si       0.44920    0.65028    0.20183    1.000
    N2338    N        0.42031    0.64768    0.16666    1.000
    N2339    N        0.44635    0.61708    0.22898    1.000
    Si2340   Si       0.40685    0.61372    0.24629    1.000
    N2341    N        0.34736    0.63473    0.32381    1.000
    N2342    N        0.25194    0.64399    0.35765    1.000
    N2343    N        0.33458    0.64999    0.26179    1.000
    Si2344   Si       0.30479    0.62138    0.25260    1.000
    Si2345   Si       0.32636    0.59607    0.31787    1.000
    N2346    N        0.26823    0.64444    0.24862    1.000
    Si2347   Si       0.36753    0.64643    0.35941    1.000
    Si2348   Si       0.42566    0.64133    0.30808    1.000
    N2349    N        0.43552    0.60074    0.31939    1.000
    N2350    N        0.39948    0.65122    0.27475    1.000
    Si2351   Si       0.46581    0.60030    0.35333    1.000
    Si2352   Si       0.26307    0.60377    0.37154    1.000
    N2353    N        0.27336    0.60838    0.47942    1.000
    Si2354   Si       0.28063    0.62626    0.43986    1.000
    N2355    N        0.32119    0.64063    0.43503    1.000
    N2356    N        0.35941    0.61201    0.38628    1.000
    Si2357   Si       0.36291    0.63678    0.42136    1.000
    N2358    N        0.37182    0.60034    0.44876    1.000
    N2359    N        0.44521    0.59741    0.45945    1.000
    N2360    N        0.46702    0.64385    0.38132    1.000
    Si2361   Si       0.45188    0.61843    0.41977    1.000
    N2362    N        0.41867    0.64839    0.42155    1.000
    N2363    N        0.40781    0.64486    0.48517    1.000
    Si2364   Si       0.40435    0.60082    0.47560    1.000
    N2365    N        0.30548    0.62707    0.55340    1.000
    Si2366   Si       0.27588    0.62123    0.52017    1.000
    Si2367   Si       0.34566    0.62684    0.52932    1.000
    N2368    N        0.24341    0.65196    0.52239    1.000
    N2369    N        0.32965    0.65659    0.50313    1.000
    Si2370   Si       0.47293    0.64039    0.56666    1.000
    Si2371   Si       0.40059    0.63432    0.58552    1.000
    N2372    N        0.45691    0.62453    0.52928    1.000
    N2373    N        0.38510    0.63740    0.54554    1.000
    Si2374   Si       0.42091    0.65274    0.52495    1.000
    Si2375   Si       0.46893    0.59841    0.49724    1.000
    N2376    N        0.37269    0.65319    0.61118    1.000
    N2377    N        0.49207    0.61598    0.59705    1.000
    N2378    N        0.30537    0.65371    0.62123    1.000
    N2379    N        0.25205    0.60536    0.62523    1.000
    Si2380   Si       0.27810    0.63152    0.64693    1.000
    Si2381   Si       0.29359    0.61407    0.71818    1.000
    N2382    N        0.27158    0.63756    0.68966    1.000
    Si2383   Si       0.34287    0.63311    0.63808    1.000
    N2384    N        0.33752    0.60974    0.71249    1.000
    N2385    N        0.31368    0.60266    0.65290    1.000
    Si2386   Si       0.36585    0.64108    0.70509    1.000
    N2387    N        0.45157    0.63578    0.66106    1.000
    N2388    N        0.40604    0.62081    0.71177    1.000
    N2389    N        0.37788    0.60381    0.65704    1.000
    Si2390   Si       0.41994    0.60728    0.67275    1.000
    Si2391   Si       0.48760    0.63581    0.63561    1.000
    Si2392   Si       0.41704    0.65748    0.73776    1.000
    N2393    N        0.26047    0.61823    0.81496    1.000
    N2394    N        0.33093    0.61723    0.81538    1.000
    N2395    N        0.29953    0.63171    0.75717    1.000
    Si2396   Si       0.33183    0.60698    0.77416    1.000
    Si2397   Si       0.27126    0.64966    0.78458    1.000
    Si2398   Si       0.35799    0.63170    0.84467    1.000
    Si2399   Si       0.29539    0.59739    0.83007    1.000
    Si2400   Si       0.41048    0.61193    0.79384    1.000
    N2401    N        0.39802    0.63730    0.82857    1.000
    N2402    N        0.43142    0.64479    0.77502    1.000
    N2403    N        0.44395    0.60388    0.87229    1.000
    N2404    N        0.37486    0.60112    0.76867    1.000
    N2405    N        0.26288    0.64789    0.91187    1.000
    N2406    N        0.30092    0.61047    0.87612    1.000
    Si2407   Si       0.26663    0.60574    0.90168    1.000
    N2408    N        0.27864    0.64194    0.98145    1.000
    N2409    N        0.35043    0.62983    0.99012    1.000
    Si2410   Si       0.24110    0.62432    0.99570    1.000
    Si2411   Si       0.36404    0.64498    0.95158    1.000
    N2412    N        0.32688    0.65630    0.93104    1.000
    Si2413   Si       0.31033    0.65424    0.89001    1.000
    N2414    N        0.36600    0.59917    0.87301    1.000
    N2415    N        0.41535    0.60112    0.99751    1.000
    Si2416   Si       0.48542    0.62589    0.97311    1.000
    N2417    N        0.39850    0.62356    0.93185    1.000
    Si2418   Si       0.46241    0.64528    0.87262    1.000
    Si2419   Si       0.40398    0.60054    0.89460    1.000
    N2420    N        0.34190    0.68958    0.07406    1.000
    N2421    N        0.27391    0.70183    0.05930    1.000
    N2422    N        0.32063    0.69480    0.00747    1.000
    Si2423   Si       0.31503    0.71025    0.04766    1.000
    N2424    N        0.40180    0.67461    0.10290    1.000
    N2425    N        0.46952    0.69646    0.05195    1.000
    Si2426   Si       0.38065    0.70606    0.08060    1.000
    Si2427   Si       0.47025    0.65903    0.07620    1.000
    N2428    N        0.46529    0.66806    0.11772    1.000
    N2429    N        0.31446    0.68730    0.21247    1.000
    Si2430   Si       0.32590    0.69618    0.17095    1.000
    Si2431   Si       0.26048    0.67919    0.13838    1.000
    N2432    N        0.29431    0.70684    0.14457    1.000
    Si2433   Si       0.27898    0.68385    0.23489    1.000
    Si2434   Si       0.35125    0.66182    0.22123    1.000
    N2435    N        0.35256    0.66361    0.17057    1.000
    N2436    N        0.37742    0.69788    0.23145    1.000
    N2437    N        0.44185    0.68728    0.22394    1.000
    Si2438   Si       0.42716    0.67712    0.13645    1.000
    Si2439   Si       0.24650    0.68571    0.35646    1.000
    Si2440   Si       0.35904    0.66396    0.29199    1.000
    N2441    N        0.34910    0.70535    0.30269    1.000
    N2442    N        0.28326    0.70402    0.34160    1.000
    N2443    N        0.28316    0.71049    0.27123    1.000
    Si2444   Si       0.41286    0.68955    0.25645    1.000
    N2445    N        0.45613    0.66536    0.29043    1.000
    N2446    N        0.40888    0.65737    0.34622    1.000
    N2447    N        0.26637    0.66863    0.45411    1.000
    Si2448   Si       0.31120    0.67058    0.46605    1.000
    Si2449   Si       0.24398    0.70361    0.43540    1.000
    N2450    N        0.32837    0.71104    0.46762    1.000
    N2451    N        0.36208    0.67368    0.39283    1.000
    N2452    N        0.46288    0.68930    0.46550    1.000
    Si2453   Si       0.42996    0.66829    0.38284    1.000
    N2454    N        0.41952    0.71171    0.38617    1.000
    Si2455   Si       0.42221    0.67388    0.45724    1.000
    Si2456   Si       0.37893    0.71132    0.40667    1.000
    N2457    N        0.39378    0.70414    0.44749    1.000
    Si2458   Si       0.33263    0.69357    0.52497    1.000
    N2459    N        0.33081    0.68978    0.56908    1.000
    N2460    N        0.26279    0.68635    0.58119    1.000
    Si2461   Si       0.36057    0.69249    0.59971    1.000
    Si2462   Si       0.29981    0.66099    0.58022    1.000
    N2463    N        0.43745    0.69167    0.52883    1.000
    Si2464   Si       0.47686    0.70481    0.54426    1.000
    Si2465   Si       0.43558    0.69651    0.60582    1.000
    N2466    N        0.39718    0.71001    0.58451    1.000
    N2467    N        0.43796    0.65780    0.58494    1.000
    N2468    N        0.37432    0.70995    0.51731    1.000
    Si2469   Si       0.25680    0.69875    0.62721    1.000
    Si2470   Si       0.32646    0.69824    0.66528    1.000
    N2471    N        0.24847    0.69803    0.71725    1.000
    N2472    N        0.28439    0.71043    0.66153    1.000
    N2473    N        0.34565    0.66133    0.67334    1.000
    Si2474   Si       0.36126    0.71286    0.73763    1.000
    Si2475   Si       0.48017    0.69839    0.72782    1.000
    Si2476   Si       0.46011    0.67823    0.67011    1.000
    N2477    N        0.44305    0.68119    0.71441    1.000
    N2478    N        0.37582    0.67233    0.73671    1.000
    N2479    N        0.43376    0.70834    0.64849    1.000
    N2480    N        0.48312    0.67772    0.62681    1.000
    N2481    N        0.27440    0.69395    0.78710    1.000
    N2482    N        0.33983    0.66854    0.85933    1.000
    Si2483   Si       0.32236    0.70799    0.85196    1.000
    Si2484   Si       0.23987    0.69775    0.76024    1.000
    Si2485   Si       0.42601    0.66983    0.81549    1.000
    N2486    N        0.41224    0.69855    0.84533    1.000
    Si2487   Si       0.48518    0.68806    0.80265    1.000
    N2488    N        0.46570    0.66047    0.83271    1.000
    N2489    N        0.44608    0.70767    0.79512    1.000
    N2490    N        0.28930    0.69593    0.88449    1.000
    Si2491   Si       0.24805    0.68251    0.89064    1.000
    Si2492   Si       0.28559    0.66482    0.94700    1.000
    N2493    N        0.28112    0.70861    0.94799    1.000
    N2494    N        0.45744    0.65846    0.96979    1.000
    Si2495   Si       0.42824    0.70536    0.88448    1.000
    N2496    N        0.39230    0.68079    0.95528    1.000
    N2497    N        0.44050    0.66718    0.90301    1.000
    Si2498   Si       0.42688    0.65699    0.94125    1.000
    N2499    N        0.31749    0.75365    0.05499    1.000
    N2500    N        0.25354    0.75694    0.10466    1.000
    N2501    N        0.25056    0.76137    0.03269    1.000
    Si2502   Si       0.24549    0.73432    0.06977    1.000
    N2503    N        0.37117    0.74809    0.09857    1.000
    Si2504   Si       0.44269    0.72820    0.05727    1.000
    N2505    N        0.44121    0.74622    0.09892    1.000
    Si2506   Si       0.40305    0.75044    0.01622    1.000
    N2507    N        0.44452    0.76058    0.02796    1.000
    N2508    N        0.40247    0.71666    0.04525    1.000
    N2509    N        0.35121    0.73356    0.17515    1.000
    Si2510   Si       0.28391    0.74845    0.13587    1.000
    N2511    N        0.25458    0.76038    0.16650    1.000
    Si2512   Si       0.35656    0.75527    0.13942    1.000
    N2513    N        0.24950    0.71322    0.21888    1.000
    N2514    N        0.35487    0.75686    0.24836    1.000
    N2515    N        0.48330    0.74046    0.20859    1.000
    Si2516   Si       0.46182    0.74078    0.13490    1.000
    Si2517   Si       0.37238    0.73697    0.21428    1.000
    N2518    N        0.41248    0.75151    0.20546    1.000
    Si2519   Si       0.44399    0.72270    0.20009    1.000
    N2520    N        0.43926    0.71276    0.15923    1.000
    Si2521   Si       0.27471    0.74750    0.34974    1.000
    N2522    N        0.30359    0.75889    0.31870    1.000
    Si2523   Si       0.26163    0.74355    0.24883    1.000
    Si2524   Si       0.30717    0.71684    0.30527    1.000
    N2525    N        0.48677    0.72605    0.27771    1.000
    Si2526   Si       0.37244    0.74099    0.28501    1.000
    N2527    N        0.46212    0.73354    0.33928    1.000
    Si2528   Si       0.44958    0.73719    0.29774    1.000
    N2529    N        0.41139    0.72127    0.28652    1.000
    N2530    N        0.26879    0.73813    0.44805    1.000
    Si2531   Si       0.29443    0.73595    0.48344    1.000
    N2532    N        0.28805    0.76380    0.38724    1.000
    Si2533   Si       0.26046    0.77002    0.41901    1.000
    N2534    N        0.35871    0.74921    0.40884    1.000
    Si2535   Si       0.43850    0.74760    0.37375    1.000
    N2536    N        0.37868    0.76544    0.47864    1.000
    Si2537   Si       0.47289    0.72986    0.47624    1.000
    Si2538   Si       0.36928    0.72331    0.47754    1.000
    N2539    N        0.44652    0.76440    0.47453    1.000
    N2540    N        0.29394    0.74579    0.59581    1.000
    N2541    N        0.24863    0.75497    0.55171    1.000
    Si2542   Si       0.28012    0.72263    0.56047    1.000
    Si2543   Si       0.25537    0.76640    0.59422    1.000
    Si2544   Si       0.33053    0.75346    0.61741    1.000
    N2545    N        0.29416    0.71267    0.52023    1.000
    Si2546   Si       0.44897    0.76333    0.57648    1.000
    N2547    N        0.42320    0.75896    0.53999    1.000
    N2548    N        0.46420    0.72152    0.58218    1.000
    Si2549   Si       0.40623    0.71914    0.54514    1.000
    N2550    N        0.43013    0.76892    0.61432    1.000
    N2551    N        0.49068    0.73437    0.51658    1.000
    Si2552   Si       0.32794    0.76217    0.69535    1.000
    Si2553   Si       0.26367    0.73066    0.69260    1.000
    N2554    N        0.34314    0.72183    0.69898    1.000
    N2555    N        0.28777    0.76068    0.71289    1.000
    N2556    N        0.34659    0.71713    0.63132    1.000
    Si2557   Si       0.44637    0.75023    0.65042    1.000
    N2558    N        0.46849    0.73988    0.73846    1.000
    N2559    N        0.48884    0.74673    0.64095    1.000
    N2560    N        0.29939    0.73862    0.83397    1.000
    N2561    N        0.26966    0.76464    0.77429    1.000
    Si2562   Si       0.29516    0.73300    0.79153    1.000
    N2563    N        0.33162    0.72758    0.76532    1.000
    Si2564   Si       0.28112    0.76754    0.86011    1.000
    Si2565   Si       0.36318    0.76715    0.76726    1.000
    Si2566   Si       0.43575    0.73519    0.83114    1.000
    N2567    N        0.40342    0.76146    0.84839    1.000
    Si2568   Si       0.43808    0.74130    0.76861    1.000
    N2569    N        0.39408    0.73700    0.75440    1.000
    N2570    N        0.45127    0.76889    0.80640    1.000
    N2571    N        0.46359    0.72686    0.87050    1.000
    N2572    N        0.34328    0.73618    0.87962    1.000
    N2573    N        0.30845    0.76100    0.98847    1.000
    Si2574   Si       0.25248    0.73635    0.92828    1.000
    N2575    N        0.28138    0.76098    0.90327    1.000
    Si2576   Si       0.31078    0.72867    0.90957    1.000
    N2577    N        0.34297    0.72656    0.94288    1.000
    Si2578   Si       0.31451    0.72193    0.97426    1.000
    Si2579   Si       0.38606    0.72187    0.94694    1.000
    N2580    N        0.40487    0.72972    0.90960    1.000
    Si2581   Si       0.38108    0.75732    0.88653    1.000
    N2582    N        0.40119    0.75223    0.97407    1.000
    Si2583   Si       0.48947    0.76088    0.88516    1.000
    N2584    N        0.34050    0.81514    0.08596    1.000
    N2585    N        0.29842    0.81691    0.01471    1.000
    Si2586   Si       0.31481    0.81535    0.12297    1.000
    Si2587   Si       0.35178    0.77505    0.07005    1.000
    Si2588   Si       0.29161    0.77552    0.02615    1.000
    Si2589   Si       0.47939    0.78252    0.01966    1.000
    Si2590   Si       0.38268    0.81803    0.01165    1.000
    N2591    N        0.41963    0.81308    0.08984    1.000
    N2592    N        0.37556    0.77908    0.03232    1.000
    N2593    N        0.48210    0.81219    0.05148    1.000
    Si2594   Si       0.44115    0.82715    0.05404    1.000
    Si2595   Si       0.40793    0.77380    0.10594    1.000
    N2596    N        0.42324    0.82954    0.01083    1.000
    N2597    N        0.34175    0.82109    0.21729    1.000
    N2598    N        0.28098    0.82327    0.17760    1.000
    Si2599   Si       0.26481    0.78938    0.19960    1.000
    N2600    N        0.28845    0.77233    0.23284    1.000
    N2601    N        0.31774    0.77352    0.13331    1.000
    Si2602   Si       0.32744    0.79044    0.24875    1.000
    N2603    N        0.39094    0.78090    0.14631    1.000
    N2604    N        0.45680    0.78004    0.15541    1.000
    Si2605   Si       0.42009    0.78607    0.17886    1.000
    N2606    N        0.41630    0.82337    0.19707    1.000
    Si2607   Si       0.33178    0.79089    0.31889    1.000
    N2608    N        0.32331    0.81729    0.28484    1.000
    N2609    N        0.33194    0.80673    0.36047    1.000
    Si2610   Si       0.41079    0.79749    0.31577    1.000
    Si2611   Si       0.47605    0.81190    0.28732    1.000
    N2612    N        0.44499    0.78180    0.29178    1.000
    N2613    N        0.41370    0.78191    0.35873    1.000
    N2614    N        0.37257    0.77918    0.30832    1.000
    Si2615   Si       0.29987    0.80881    0.46436    1.000
    N2616    N        0.33316    0.80312    0.43673    1.000
    N2617    N        0.26566    0.80986    0.43775    1.000
    Si2618   Si       0.32665    0.78113    0.39641    1.000
    N2619    N        0.29179    0.77862    0.49538    1.000
    Si2620   Si       0.46444    0.83324    0.49233    1.000
    N2621    N        0.45107    0.77440    0.40468    1.000
    N2622    N        0.46686    0.82380    0.44764    1.000
    N2623    N        0.39412    0.81158    0.42388    1.000
    Si2624   Si       0.37108    0.77828    0.43946    1.000
    Si2625   Si       0.47259    0.78064    0.44325    1.000
    Si2626   Si       0.42313    0.80599    0.39422    1.000
    N2627    N        0.29060    0.80957    0.56135    1.000
    Si2628   Si       0.26803    0.78904    0.52987    1.000
    Si2629   Si       0.33334    0.81066    0.57262    1.000
    N2630    N        0.35754    0.77996    0.59223    1.000
    N2631    N        0.24677    0.80681    0.60760    1.000
    N2632    N        0.35824    0.82533    0.53704    1.000
    N2633    N        0.32436    0.83281    0.61001    1.000
    N2634    N        0.48451    0.78695    0.56766    1.000
    Si2635   Si       0.39602    0.79371    0.60917    1.000
    N2636    N        0.42439    0.82075    0.50641    1.000
    N2637    N        0.41334    0.82315    0.58263    1.000
    Si2638   Si       0.41462    0.77856    0.50075    1.000
    N2639    N        0.32862    0.77722    0.65377    1.000
    Si2640   Si       0.25150    0.78983    0.71152    1.000
    N2641    N        0.26151    0.81702    0.67930    1.000
    N2642    N        0.34813    0.78454    0.72722    1.000
    Si2643   Si       0.34162    0.81842    0.64875    1.000
    N2644    N        0.28637    0.82142    0.73747    1.000
    Si2645   Si       0.35966    0.82683    0.72041    1.000
    N2646    N        0.43978    0.77819    0.68243    1.000
    N2647    N        0.38545    0.81526    0.64906    1.000
    Si2648   Si       0.42048    0.81641    0.67704    1.000
    Si2649   Si       0.46743    0.77763    0.71653    1.000
    N2650    N        0.40332    0.82659    0.71603    1.000
    N2651    N        0.32833    0.78523    0.78684    1.000
    Si2652   Si       0.34588    0.82424    0.79416    1.000
    Si2653   Si       0.30244    0.78107    0.75048    1.000
    N2654    N        0.24179    0.78528    0.84967    1.000
    N2655    N        0.36372    0.82258    0.83645    1.000
    N2656    N        0.29787    0.80891    0.86739    1.000
    N2657    N        0.39027    0.79894    0.78253    1.000
    Si2658   Si       0.39819    0.79647    0.82532    1.000
    Si2659   Si       0.46776    0.80209    0.82910    1.000
    N2660    N        0.43186    0.82304    0.83508    1.000
    Si2661   Si       0.41976    0.82099    0.75663    1.000
    N2662    N        0.45875    0.80606    0.74602    1.000
    Si2663   Si       0.35366    0.82361    0.92959    1.000
    Si2664   Si       0.32161    0.80250    0.97964    1.000
    Si2665   Si       0.28481    0.80554    0.90846    1.000
    N2666    N        0.31194    0.81467    0.93895    1.000
    N2667    N        0.24763    0.82866    0.90684    1.000
    N2668    N        0.48920    0.81104    0.98727    1.000
    Si2669   Si       0.47856    0.80776    0.94400    1.000
    N2670    N        0.36625    0.81011    0.97135    1.000
    N2671    N        0.43530    0.81286    0.94795    1.000
    N2672    N        0.37966    0.79154    0.91214    1.000
    Si2673   Si       0.40023    0.78900    0.95130    1.000
    Si2674   Si       0.27492    0.86842    0.07828    1.000
    Si2675   Si       0.34801    0.85410    0.06911    1.000
    Si2676   Si       0.26931    0.84831    0.00881    1.000
    N2677    N        0.31085    0.87545    0.05838    1.000
    N2678    N        0.24674    0.85541    0.04665    1.000
    N2679    N        0.27905    0.83862    0.11179    1.000
    N2680    N        0.28210    0.88699    0.99724    1.000
    N2681    N        0.36629    0.85305    0.02804    1.000
    N2682    N        0.37931    0.87460    0.08952    1.000
    N2683    N        0.44239    0.86775    0.07017    1.000
    Si2684   Si       0.41450    0.85479    0.10323    1.000
    Si2685   Si       0.38367    0.88843    0.00918    1.000
    Si2686   Si       0.26976    0.88251    0.23248    1.000
    Si2687   Si       0.31936    0.84425    0.18708    1.000
    N2688    N        0.30485    0.87932    0.20566    1.000
    Si2689   Si       0.25431    0.84004    0.14650    1.000
    N2690    N        0.33870    0.84000    0.14866    1.000
    Si2691   Si       0.44335    0.85200    0.17913    1.000
    N2692    N        0.48436    0.84035    0.18134    1.000
    N2693    N        0.42119    0.86730    0.14323    1.000
    Si2694   Si       0.38116    0.84001    0.21783    1.000
    N2695    N        0.36895    0.87866    0.19632    1.000
    Si2696   Si       0.31912    0.86038    0.28530    1.000
    N2697    N        0.32965    0.87504    0.32615    1.000
    N2698    N        0.27802    0.87283    0.27388    1.000
    Si2699   Si       0.32445    0.85092    0.36293    1.000
    N2700    N        0.34312    0.88809    0.26051    1.000
    Si2701   Si       0.25273    0.89222    0.29954    1.000
    Si2702   Si       0.25961    0.88956    0.36267    1.000
    N2703    N        0.46825    0.85211    0.27297    1.000
    Si2704   Si       0.42612    0.85939    0.28024    1.000
    Si2705   Si       0.43171    0.86893    0.34945    1.000
    N2706    N        0.41826    0.83922    0.31895    1.000
    N2707    N        0.39499    0.83935    0.25870    1.000
    N2708    N        0.46810    0.89079    0.34078    1.000
    N2709    N        0.30287    0.84475    0.48918    1.000
    N2710    N        0.35343    0.86203    0.39461    1.000
    N2711    N        0.28697    0.86109    0.38253    1.000
    Si2712   Si       0.25804    0.84426    0.41303    1.000
    Si2713   Si       0.27554    0.87894    0.48352    1.000
    N2714    N        0.25469    0.87421    0.44546    1.000
    Si2715   Si       0.36074    0.83904    0.42992    1.000
    N2716    N        0.36351    0.86007    0.46840    1.000
    Si2717   Si       0.47175    0.85251    0.41340    1.000
    N2718    N        0.43939    0.84531    0.38640    1.000
    Si2719   Si       0.32424    0.87507    0.60035    1.000
    Si2720   Si       0.34197    0.85344    0.50513    1.000
    N2721    N        0.29145    0.87703    0.57346    1.000
    N2722    N        0.24805    0.88653    0.51747    1.000
    Si2723   Si       0.26799    0.84154    0.59010    1.000
    N2724    N        0.36515    0.88561    0.59251    1.000
    N2725    N        0.47415    0.87108    0.51516    1.000
    N2726    N        0.47752    0.85073    0.60034    1.000
    N2727    N        0.41802    0.87511    0.54875    1.000
    Si2728   Si       0.43694    0.85897    0.58667    1.000
    Si2729   Si       0.40097    0.83431    0.54168    1.000
    N2730    N        0.26408    0.86317    0.63092    1.000
    Si2731   Si       0.28950    0.84261    0.69918    1.000
    N2732    N        0.27840    0.88323    0.69564    1.000
    N2733    N        0.33366    0.83947    0.68832    1.000
    N2734    N        0.44848    0.84983    0.66281    1.000
    N2735    N        0.48215    0.86952    0.73816    1.000
    Si2736   Si       0.48816    0.84339    0.64284    1.000
    Si2737   Si       0.43075    0.88876    0.65923    1.000
    Si2738   Si       0.27881    0.84813    0.77042    1.000
    Si2739   Si       0.30446    0.84544    0.84545    1.000
    N2740    N        0.35081    0.84920    0.75769    1.000
    N2741    N        0.26697    0.86511    0.85077    1.000
    N2742    N        0.33183    0.87667    0.85521    1.000
    N2743    N        0.30566    0.84339    0.80250    1.000
    Si2744   Si       0.33466    0.88880    0.76098    1.000
    Si2745   Si       0.24513    0.82775    0.86188    1.000
    N2746    N        0.29108    0.88916    0.75774    1.000
    N2747    N        0.48817    0.83660    0.80674    1.000
    Si2748   Si       0.37018    0.85453    0.86622    1.000
    Si2749   Si       0.42740    0.86361    0.82032    1.000
    N2750    N        0.42956    0.86006    0.77753    1.000
    N2751    N        0.39791    0.88253    0.84654    1.000
    Si2752   Si       0.48709    0.83255    0.76383    1.000
    Si2753   Si       0.44665    0.89015    0.75286    1.000
    N2754    N        0.39642    0.87779    0.96898    1.000
    Si2755   Si       0.43207    0.84925    0.97383    1.000
    N2756    N        0.36991    0.85787    0.90936    1.000
    N2757    N        0.45929    0.87884    0.95658    1.000
    N2758    N        0.26024    0.90608    0.09617    1.000
    N2759    N        0.28908    0.93852    0.03700    1.000
    Si2760   Si       0.31097    0.90374    0.02528    1.000
    Si2761   Si       0.26402    0.94290    0.07277    1.000
    N2762    N        0.35716    0.94449    0.08636    1.000
    N2763    N        0.34890    0.91206    0.00492    1.000
    N2764    N        0.41695    0.91413    0.02160    1.000
    Si2765   Si       0.44356    0.90864    0.05630    1.000
    N2766    N        0.42634    0.92908    0.09090    1.000
    Si2767   Si       0.38594    0.91516    0.10118    1.000
    N2768    N        0.48276    0.92618    0.05364    1.000
    N2769    N        0.26140    0.92601    0.22308    1.000
    Si2770   Si       0.34048    0.90469    0.21693    1.000
    N2771    N        0.32551    0.94296    0.19966    1.000
    Si2772   Si       0.24429    0.91357    0.13522    1.000
    N2773    N        0.26771    0.94636    0.15232    1.000
    N2774    N        0.43444    0.89386    0.19733    1.000
    N2775    N        0.38381    0.92577    0.14318    1.000
    Si2776   Si       0.46628    0.92062    0.21213    1.000
    N2777    N        0.37804    0.93561    0.23271    1.000
    Si2778   Si       0.40051    0.89690    0.17223    1.000
    N2779    N        0.27900    0.91409    0.33190    1.000
    Si2780   Si       0.32682    0.91934    0.33202    1.000
    N2781    N        0.36543    0.93417    0.30856    1.000
    Si2782   Si       0.40376    0.92311    0.32580    1.000
    Si2783   Si       0.47335    0.93450    0.33948    1.000
    Si2784   Si       0.37554    0.91550    0.27030    1.000
    N2785    N        0.41209    0.89975    0.28737    1.000
    N2786    N        0.40143    0.89834    0.36045    1.000
    N2787    N        0.48177    0.91583    0.25046    1.000
    N2788    N        0.34103    0.92786    0.37546    1.000
    N2789    N        0.29818    0.91507    0.48737    1.000
    N2790    N        0.35577    0.94279    0.48173    1.000
    Si2791   Si       0.37159    0.90162    0.39206    1.000
    N2792    N        0.41774    0.90423    0.48543    1.000
    Si2793   Si       0.43014    0.91109    0.44425    1.000
    N2794    N        0.38895    0.90871    0.42921    1.000
    Si2795   Si       0.37588    0.90443    0.47062    1.000
    N2796    N        0.46636    0.89186    0.42866    1.000
    Si2797   Si       0.32972    0.92821    0.51437    1.000
    N2798    N        0.25294    0.94043    0.57240    1.000
    Si2799   Si       0.25745    0.90021    0.55949    1.000
    N2800    N        0.35365    0.89297    0.52194    1.000
    N2801    N        0.32312    0.95088    0.55423    1.000
    N2802    N        0.45438    0.93374    0.54637    1.000
    Si2803   Si       0.38051    0.89858    0.55376    1.000
    Si2804   Si       0.44189    0.89991    0.52186    1.000
    N2805    N        0.38811    0.94013    0.55944    1.000
    N2806    N        0.42971    0.89519    0.61393    1.000
    Si2807   Si       0.45207    0.93200    0.61623    1.000
    N2808    N        0.35981    0.95098    0.62429    1.000
    Si2809   Si       0.26887    0.91228    0.72765    1.000
    N2810    N        0.26473    0.93596    0.65127    1.000
    N2811    N        0.35293    0.91752    0.73494    1.000
    N2812    N        0.32220    0.89742    0.63808    1.000
    Si2813   Si       0.28132    0.89648    0.65202    1.000
    Si2814   Si       0.36459    0.90769    0.63145    1.000
    N2815    N        0.44968    0.92818    0.66236    1.000
    Si2816   Si       0.38336    0.91648    0.70372    1.000
    N2817    N        0.38822    0.89466    0.66639    1.000
    N2818    N        0.41929    0.91227    0.72721    1.000
    N2819    N        0.34558    0.91276    0.79639    1.000
    N2820    N        0.29153    0.93419    0.83565    1.000
    Si2821   Si       0.33318    0.91509    0.83724    1.000
    Si2822   Si       0.25999    0.90706    0.84645    1.000
    N2823    N        0.35837    0.94271    0.85879    1.000
    Si2824   Si       0.35577    0.94678    0.77069    1.000
    N2825    N        0.45951    0.88933    0.84186    1.000
    N2826    N        0.44897    0.92502    0.77982    1.000
    Si2827   Si       0.46760    0.93019    0.81843    1.000
    N2828    N        0.42997    0.94508    0.84223    1.000
    Si2829   Si       0.42566    0.91009    0.86579    1.000
    Si2830   Si       0.42833    0.94967    0.74966    1.000
    Si2831   Si       0.23959    0.92835    0.91444    1.000
    Si2832   Si       0.35336    0.94403    0.97621    1.000
    Si2833   Si       0.24874    0.91229    0.98039    1.000
    N2834    N        0.28112    0.94005    0.91491    1.000
    Si2835   Si       0.38877    0.89263    0.92842    1.000
    Si2836   Si       0.45555    0.91779    0.93999    1.000
    N2837    N        0.42308    0.91041    0.90979    1.000
    N2838    N        0.36470    0.93009    0.93551    1.000
    N2839    N        0.28907    0.97318    0.09250    1.000
    Si2840   Si       0.32979    0.97556    0.07985    1.000
    N2841    N        0.33149    0.99862    0.04284    1.000
    Si2842   Si       0.28545    0.96856    0.00454    1.000
    N2843    N        0.26708    0.00171    0.02345    1.000
    N2844    N        0.35060    0.00239    0.10842    1.000
    Si2845   Si       0.36471    0.00267    0.01801    1.000
    N2846    N        0.44977    0.97777    0.02736    1.000
    Si2847   Si       0.44899    0.96428    0.10551    1.000
    N2848    N        0.41204    0.98450    0.11124    1.000
    N2849    N        0.48213    0.98891    0.08555    1.000
    Si2850   Si       0.42286    0.95394    0.00164    1.000
    N2851    N        0.38134    0.96949    0.99476    1.000
    Si2852   Si       0.48662    0.96859    0.04768    1.000
    N2853    N        0.34426    0.99635    0.23973    1.000
    Si2854   Si       0.26801    0.98198    0.12832    1.000
    N2855    N        0.27814    0.99157    0.20744    1.000
    Si2856   Si       0.35938    0.96799    0.20908    1.000
    Si2857   Si       0.28330    0.94937    0.19335    1.000
    Si2858   Si       0.47565    0.97980    0.17271    1.000
    N2859    N        0.37760    0.98462    0.17310    1.000
    N2860    N        0.45748    0.96364    0.20679    1.000
    Si2861   Si       0.45154    0.99628    0.23549    1.000
    Si2862   Si       0.37485    0.96910    0.13233    1.000
    N2863    N        0.47472    0.95183    0.13773    1.000
    N2864    N        0.31399    0.96428    0.32388    1.000
    N2865    N        0.27609    0.97506    0.27133    1.000
    Si2866   Si       0.35634    0.97909    0.31786    1.000
    N2867    N        0.24720    0.97435    0.34311    1.000
    Si2868   Si       0.27219    0.95362    0.31212    1.000
    Si2869   Si       0.24499    0.95184    0.25140    1.000
    Si2870   Si       0.30127    0.00337    0.34252    1.000
    Si2871   Si       0.30086    0.99950    0.24479    1.000
    N2872    N        0.38947    0.99585    0.29002    1.000
    N2873    N        0.37727    0.98086    0.35521    1.000
    N2874    N        0.45820    0.98339    0.27588    1.000
    Si2875   Si       0.42929    0.98848    0.30636    1.000
    N2876    N        0.43593    0.95088    0.32770    1.000
    Si2877   Si       0.27555    0.99627    0.41345    1.000
    N2878    N        0.30888    0.99226    0.38371    1.000
    N2879    N        0.29088    0.97827    0.45124    1.000
    Si2880   Si       0.34657    0.97083    0.38527    1.000
    Si2881   Si       0.35862    0.98243    0.46499    1.000
    Si2882   Si       0.27299    0.94777    0.47538    1.000
    Si2883   Si       0.47935    0.96366    0.46290    1.000
    N2884    N        0.46841    0.98955    0.49506    1.000
    N2885    N        0.36914    0.97738    0.42145    1.000
    Si2886   Si       0.47790    0.99075    0.39775    1.000
    N2887    N        0.43226    0.00093    0.39981    1.000
    N2888    N        0.44231    0.95195    0.44206    1.000
    Si2889   Si       0.41225    0.98067    0.43243    1.000
    N2890    N        0.40038    0.99359    0.47294    1.000
    N2891    N        0.48894    0.95166    0.37799    1.000
    Si2892   Si       0.28234    0.96963    0.55507    1.000
    N2893    N        0.26649    0.96808    0.51360    1.000
    Si2894   Si       0.35554    0.96334    0.58074    1.000
    Si2895   Si       0.24084    0.00270    0.51151    1.000
    N2896    N        0.28635    0.00678    0.57612    1.000
    N2897    N        0.35936    0.00636    0.57597    1.000
    Si2898   Si       0.42428    0.96267    0.56217    1.000
    N2899    N        0.43305    0.96800    0.60471    1.000
    N2900    N        0.41819    0.00042    0.54267    1.000
    Si2901   Si       0.28183    0.96543    0.67866    1.000
    N2902    N        0.32130    0.98297    0.67431    1.000
    N2903    N        0.26214    0.00301    0.67546    1.000
    Si2904   Si       0.36049    0.97235    0.66088    1.000
    N2905    N        0.28190    0.95107    0.72029    1.000
    N2906    N        0.39054    0.95716    0.68791    1.000
    Si2907   Si       0.43482    0.96317    0.68331    1.000
    Si2908   Si       0.42125    0.00081    0.62900    1.000
    N2909    N        0.44674    0.00052    0.66482    1.000
    N2910    N        0.45478    0.96997    0.72242    1.000
    N2911    N        0.38179    0.00845    0.65021    1.000
    Si2912   Si       0.29416    0.97252    0.81589    1.000
    N2913    N        0.32229    0.97220    0.78250    1.000
    N2914    N        0.26121    0.97660    0.78615    1.000
    Si2915   Si       0.29127    0.98025    0.75282    1.000
    Si2916   Si       0.39391    0.96893    0.85119    1.000
    N2917    N        0.39233    0.97025    0.76424    1.000
    N2918    N        0.39002    0.00239    0.82481    1.000
    Si2919   Si       0.48623    0.00120    0.79888    1.000
    N2920    N        0.48996    0.96858    0.82800    1.000
    N2921    N        0.31695    0.96782    0.97535    1.000
    N2922    N        0.33216    0.98600    0.91329    1.000
    Si2923   Si       0.29663    0.97382    0.93680    1.000
    N2924    N        0.25182    0.95658    0.97554    1.000
    N2925    N        0.26834    0.00509    0.93605    1.000
    Si2926   Si       0.36064    0.95642    0.90111    1.000
    Si2927   Si       0.45958    0.99713    0.96538    1.000
    N2928    N        0.39624    0.98236    0.89289    1.000
    N2929    N        0.44553    0.95348    0.96513    1.000
    N2930    N        0.59824    0.04597    0.04435    1.000
    N2931    N        0.51122    0.04532    0.05201    1.000
    Si2932   Si       0.55450    0.05184    0.05743    1.000
    Si2933   Si       0.51118    0.02181    0.08888    1.000
    N2934    N        0.55478    0.01574    0.08591    1.000
    Si2935   Si       0.60138    0.00855    0.01177    1.000
    N2936    N        0.62753    0.03023    0.11053    1.000
    N2937    N        0.70291    0.04791    0.09205    1.000
    Si2938   Si       0.66000    0.03198    0.07920    1.000
    N2939    N        0.70414    0.02521    0.01186    1.000
    Si2940   Si       0.66934    0.05258    0.00645    1.000
    Si2941   Si       0.74202    0.06061    0.10925    1.000
    Si2942   Si       0.52239    0.00975    0.22174    1.000
    N2943    N        0.50526    0.04330    0.12518    1.000
    N2944    N        0.55824    0.03265    0.21533    1.000
    Si2945   Si       0.57540    0.04052    0.17693    1.000
    N2946    N        0.67930    0.05867    0.15676    1.000
    Si2947   Si       0.64740    0.03171    0.15073    1.000
    N2948    N        0.71231    0.06156    0.21978    1.000
    Si2949   Si       0.63553    0.06106    0.21960    1.000
    Si2950   Si       0.71432    0.04738    0.17723    1.000
    N2951    N        0.61931    0.04331    0.18424    1.000
    N2952    N        0.65558    0.02999    0.24578    1.000
    Si2953   Si       0.54194    0.03933    0.32151    1.000
    N2954    N        0.50299    0.02170    0.31349    1.000
    Si2955   Si       0.57690    0.04113    0.25425    1.000
    N2956    N        0.57246    0.01574    0.34355    1.000
    N2957    N        0.54892    0.06064    0.28272    1.000
    N2958    N        0.63893    0.02034    0.31836    1.000
    Si2959   Si       0.66352    0.05455    0.32470    1.000
    N2960    N        0.69503    0.05317    0.29569    1.000
    Si2961   Si       0.69648    0.03913    0.25395    1.000
    N2962    N        0.66672    0.05507    0.36917    1.000
    Si2963   Si       0.56961    0.04284    0.37871    1.000
    N2964    N        0.54540    0.04069    0.41395    1.000
    N2965    N        0.53833    0.00946    0.48970    1.000
    Si2966   Si       0.51652    0.06698    0.39421    1.000
    N2967    N        0.64138    0.05210    0.44191    1.000
    N2968    N        0.69756    0.01659    0.44841    1.000
    Si2969   Si       0.65538    0.01786    0.46581    1.000
    Si2970   Si       0.63609    0.04853    0.39778    1.000
    N2971    N        0.72808    0.03882    0.38813    1.000
    N2972    N        0.61136    0.02192    0.49600    1.000
    N2973    N        0.55242    0.03416    0.57818    1.000
    Si2974   Si       0.51607    0.05705    0.56951    1.000
    N2975    N        0.60312    0.01378    0.61609    1.000
    N2976    N        0.61111    0.05901    0.55829    1.000
    N2977    N        0.49020    0.03994    0.53915    1.000
    Si2978   Si       0.62200    0.05704    0.51643    1.000
    Si2979   Si       0.63014    0.03275    0.58606    1.000
    N2980    N        0.66629    0.04955    0.60516    1.000
    Si2981   Si       0.70847    0.04057    0.59404    1.000
    N2982    N        0.71465    0.02641    0.55293    1.000
    N2983    N        0.66748    0.05573    0.50963    1.000
    Si2984   Si       0.67808    0.02010    0.53139    1.000
    N2985    N        0.57269    0.02928    0.68113    1.000
    N2986    N        0.50464    0.04748    0.67432    1.000
    N2987    N        0.53597    0.03955    0.73968    1.000
    Si2988   Si       0.60852    0.02025    0.65904    1.000
    Si2989   Si       0.53286    0.01573    0.66658    1.000
    Si2990   Si       0.50668    0.06184    0.71759    1.000
    N2991    N        0.61243    0.06456    0.74146    1.000
    N2992    N        0.63620    0.05295    0.66811    1.000
    N2993    N        0.68010    0.06086    0.71894    1.000
    N2994    N        0.72428    0.01222    0.62501    1.000
    N2995    N        0.57976    0.02961    0.79523    1.000
    N2996    N        0.51060    0.03752    0.80363    1.000
    Si2997   Si       0.58821    0.03885    0.83784    1.000
    Si2998   Si       0.54536    0.05166    0.78042    1.000
    N2999    N        0.55131    0.04438    0.86275    1.000
    Si3000   Si       0.51455    0.05693    0.84237    1.000
    Si3001   Si       0.61031    0.02898    0.76508    1.000
    N3002    N        0.61292    0.00922    0.85816    1.000
    N3003    N        0.71674    0.04751    0.77975    1.000
    N3004    N        0.65060    0.02053    0.77501    1.000
    Si3005   Si       0.68620    0.03495    0.75250    1.000
    N3006    N        0.52281    0.04706    0.92693    1.000
    N3007    N        0.59717    0.04683    0.91252    1.000
    Si3008   Si       0.49814    0.01842    0.90436    1.000
    Si3009   Si       0.55886    0.06124    0.90313    1.000
    N3010    N        0.56302    0.02799    0.99819    1.000
    Si3011   Si       0.69872    0.06142    0.88261    1.000
    N3012    N        0.65513    0.05997    0.87512    1.000
    N3013    N        0.63778    0.02616    0.99322    1.000
    Si3014   Si       0.62986    0.02950    0.89147    1.000
    N3015    N        0.71283    0.02572    0.89910    1.000
    N3016    N        0.55547    0.08985    0.03123    1.000
    N3017    N        0.55402    0.07889    0.09357    1.000
    Si3018   Si       0.56943    0.11682    0.08364    1.000
    N3019    N        0.60969    0.11491    0.07119    1.000
    Si3020   Si       0.57766    0.06958    0.99679    1.000
    N3021    N        0.61658    0.09143    0.00039    1.000
    Si3022   Si       0.61898    0.08436    0.04308    1.000
    Si3023   Si       0.70411    0.11805    0.00161    1.000
    Si3024   Si       0.69488    0.08792    0.07028    1.000
    N3025    N        0.71921    0.10241    0.03720    1.000
    N3026    N        0.73670    0.10540    0.09962    1.000
    N3027    N        0.67583    0.12239    0.08842    1.000
    N3028    N        0.66103    0.06824    0.04815    1.000
    Si3029   Si       0.59388    0.11573    0.15473    1.000
    Si3030   Si       0.53160    0.07728    0.13344    1.000
    N3031    N        0.51060    0.11630    0.13165    1.000
    N3032    N        0.56828    0.07837    0.15891    1.000
    N3033    N        0.48757    0.07584    0.18019    1.000
    N3034    N        0.65156    0.09940    0.20481    1.000
    Si3035   Si       0.66815    0.10139    0.16480    1.000
    N3036    N        0.63442    0.11305    0.14083    1.000
    Si3037   Si       0.53502    0.10209    0.27535    1.000
    Si3038   Si       0.55337    0.10893    0.33624    1.000
    N3039    N        0.51488    0.11491    0.31427    1.000
    N3040    N        0.57773    0.11515    0.29985    1.000
    N3041    N        0.60554    0.07334    0.24946    1.000
    N3042    N        0.49935    0.09240    0.25085    1.000
    N3043    N        0.53950    0.06895    0.35502    1.000
    Si3044   Si       0.61423    0.10247    0.28260    1.000
    N3045    N        0.70522    0.09604    0.34411    1.000
    N3046    N        0.64256    0.09120    0.31528    1.000
    Si3047   Si       0.72854    0.07911    0.31111    1.000
    Si3048   Si       0.67093    0.12054    0.32986    1.000
    N3049    N        0.73924    0.10073    0.27568    1.000
    N3050    N        0.49671    0.08601    0.48694    1.000
    Si3051   Si       0.59042    0.11056    0.39804    1.000
    N3052    N        0.55299    0.10601    0.41720    1.000
    N3053    N        0.60201    0.07003    0.38089    1.000
    N3054    N        0.61045    0.09274    0.49436    1.000
    Si3055   Si       0.70390    0.07435    0.38296    1.000
    N3056    N        0.66871    0.11789    0.47841    1.000
    Si3057   Si       0.63749    0.09052    0.45917    1.000
    N3058    N        0.69975    0.10895    0.41139    1.000
    N3059    N        0.62793    0.11195    0.42148    1.000
    N3060    N        0.57078    0.09820    0.60471    1.000
    N3061    N        0.53963    0.08479    0.54300    1.000
    Si3062   Si       0.52584    0.10719    0.50920    1.000
    N3063    N        0.50656    0.07821    0.60585    1.000
    Si3064   Si       0.53272    0.11405    0.61719    1.000
    Si3065   Si       0.57383    0.07298    0.56979    1.000
    Si3066   Si       0.68409    0.09683    0.51123    1.000
    Si3067   Si       0.72405    0.11010    0.56357    1.000
    N3068    N        0.67996    0.10760    0.55349    1.000
    N3069    N        0.72999    0.09197    0.52032    1.000
    N3070    N        0.73213    0.07697    0.59185    1.000
    N3071    N        0.63780    0.10837    0.61679    1.000
    Si3072   Si       0.66709    0.12751    0.59078    1.000
    Si3073   Si       0.48889    0.07796    0.64702    1.000
    N3074    N        0.51844    0.10303    0.72159    1.000
    N3075    N        0.51143    0.11542    0.65676    1.000
    Si3076   Si       0.54622    0.12165    0.69008    1.000
    Si3077   Si       0.59865    0.12574    0.62218    1.000
    Si3078   Si       0.71311    0.06995    0.69462    1.000
    Si3079   Si       0.65854    0.07595    0.63846    1.000
    N3080    N        0.72540    0.11030    0.70833    1.000
    Si3081   Si       0.63861    0.07346    0.70554    1.000
    Si3082   Si       0.72645    0.10126    0.62828    1.000
    N3083    N        0.69787    0.08199    0.65614    1.000
    N3084    N        0.64253    0.11798    0.70322    1.000
    Si3085   Si       0.68373    0.12842    0.71075    1.000
    N3086    N        0.52287    0.09973    0.83649    1.000
    N3087    N        0.55908    0.09237    0.77531    1.000
    N3088    N        0.60040    0.08078    0.83558    1.000
    Si3089   Si       0.56530    0.10524    0.84794    1.000
    Si3090   Si       0.59553    0.10071    0.75594    1.000
    N3091    N        0.66745    0.09399    0.80958    1.000
    Si3092   Si       0.64181    0.09097    0.84683    1.000
    Si3093   Si       0.71000    0.08376    0.80543    1.000
    N3094    N        0.71858    0.06567    0.84322    1.000
    N3095    N        0.50710    0.11654    0.92905    1.000
    N3096    N        0.49619    0.08708    0.98878    1.000
    N3097    N        0.56010    0.09299    0.96462    1.000
    N3098    N        0.56403    0.10339    0.89238    1.000
    Si3099   Si       0.51911    0.08241    0.95239    1.000
    Si3100   Si       0.64606    0.11287    0.97471    1.000
    Si3101   Si       0.71468    0.08460    0.95099    1.000
    N3102    N        0.68135    0.08496    0.97898    1.000
    N3103    N        0.73612    0.11772    0.97258    1.000
    N3104    N        0.70773    0.09295    0.90871    1.000
    N3105    N        0.53629    0.14006    0.06750    1.000
    Si3106   Si       0.51020    0.14859    0.10068    1.000
    N3107    N        0.57796    0.14983    0.00601    1.000
    N3108    N        0.51135    0.15270    0.00436    1.000
    Si3109   Si       0.54239    0.13203    0.02354    1.000
    N3110    N        0.58019    0.14204    0.12056    1.000
    Si3111   Si       0.56914    0.18381    0.12162    1.000
    Si3112   Si       0.68966    0.16490    0.08807    1.000
    N3113    N        0.64785    0.17669    0.09972    1.000
    N3114    N        0.72685    0.16888    0.11192    1.000
    Si3115   Si       0.63478    0.13269    0.10242    1.000
    N3116    N        0.66675    0.14200    0.00193    1.000
    Si3117   Si       0.66325    0.18261    0.01774    1.000
    N3118    N        0.69610    0.18171    0.04712    1.000
    Si3119   Si       0.57354    0.17260    0.19704    1.000
    N3120    N        0.52776    0.16951    0.19326    1.000
    Si3121   Si       0.50946    0.16061    0.23370    1.000
    N3122    N        0.59489    0.13535    0.19218    1.000
    N3123    N        0.66206    0.16357    0.21183    1.000
    Si3124   Si       0.73411    0.13247    0.13271    1.000
    Si3125   Si       0.62972    0.13402    0.21744    1.000
    N3126    N        0.70151    0.12793    0.16075    1.000
    N3127    N        0.72426    0.13676    0.22722    1.000
    Si3128   Si       0.70211    0.15434    0.19553    1.000
    Si3129   Si       0.57805    0.15950    0.26903    1.000
    N3130    N        0.53961    0.14259    0.25876    1.000
    N3131    N        0.57575    0.13519    0.36487    1.000
    N3132    N        0.62124    0.14039    0.26137    1.000
    N3133    N        0.68418    0.13740    0.29370    1.000
    Si3134   Si       0.72108    0.14081    0.27037    1.000
    Si3135   Si       0.65455    0.16622    0.27749    1.000
    N3136    N        0.65959    0.14266    0.36368    1.000
    Si3137   Si       0.57847    0.17519    0.38065    1.000
    N3138    N        0.50157    0.14341    0.44583    1.000
    N3139    N        0.56609    0.17240    0.42326    1.000
    Si3140   Si       0.54496    0.13952    0.44120    1.000
    N3141    N        0.60837    0.16145    0.47448    1.000
    N3142    N        0.55327    0.12424    0.48156    1.000
    Si3143   Si       0.59147    0.12986    0.50038    1.000
    N3144    N        0.72512    0.17253    0.44899    1.000
    Si3145   Si       0.66312    0.13198    0.40376    1.000
    N3146    N        0.65854    0.16851    0.42616    1.000
    Si3147   Si       0.65221    0.15866    0.46787    1.000
    Si3148   Si       0.71535    0.18217    0.48867    1.000
    Si3149   Si       0.73184    0.13340    0.42993    1.000
    N3150    N        0.67157    0.18671    0.49436    1.000
    N3151    N        0.52420    0.15029    0.59533    1.000
    N3152    N        0.51092    0.14415    0.52808    1.000
    N3153    N        0.58933    0.16465    0.60250    1.000
    Si3154   Si       0.54122    0.16211    0.55349    1.000
    N3155    N        0.57958    0.14425    0.54001    1.000
    Si3156   Si       0.60649    0.16845    0.56326    1.000
    Si3157   Si       0.49410    0.17895    0.60763    1.000
    N3158    N        0.64853    0.16069    0.57392    1.000
    Si3159   Si       0.72012    0.17518    0.61095    1.000
    N3160    N        0.70770    0.13507    0.60604    1.000
    N3161    N        0.74148    0.15556    0.51079    1.000
    N3162    N        0.57883    0.12375    0.72252    1.000
    Si3163   Si       0.60780    0.14377    0.69012    1.000
    Si3164   Si       0.49111    0.14763    0.68025    1.000
    N3165    N        0.53038    0.16211    0.69291    1.000
    N3166    N        0.57905    0.12803    0.66029    1.000
    N3167    N        0.68778    0.16747    0.69340    1.000
    N3168    N        0.62842    0.17002    0.65603    1.000
    N3169    N        0.57547    0.14440    0.83282    1.000
    Si3170   Si       0.58727    0.15935    0.79398    1.000
    N3171    N        0.54951    0.16507    0.76781    1.000
    Si3172   Si       0.57060    0.17789    0.86210    1.000
    Si3173   Si       0.53477    0.12563    0.75610    1.000
    N3174    N        0.49573    0.12635    0.77914    1.000
    N3175    N        0.71373    0.14340    0.85590    1.000
    N3176    N        0.67068    0.16305    0.80755    1.000
    Si3177   Si       0.67574    0.16207    0.85022    1.000
    Si3178   Si       0.73122    0.13520    0.75240    1.000
    N3179    N        0.64781    0.12952    0.86529    1.000
    N3180    N        0.61838    0.13125    0.77684    1.000
    Si3181   Si       0.65962    0.12843    0.78463    1.000
    N3182    N        0.68672    0.12764    0.75291    1.000
    N3183    N        0.73045    0.18056    0.75410    1.000
    N3184    N        0.60560    0.18011    0.88653    1.000
    Si3185   Si       0.58338    0.13242    0.96536    1.000
    Si3186   Si       0.54198    0.13658    0.91223    1.000
    N3187    N        0.53429    0.16523    0.87987    1.000
    N3188    N        0.56127    0.16131    0.94019    1.000
    Si3189   Si       0.71028    0.13487    0.89807    1.000
    Si3190   Si       0.63404    0.14729    0.90386    1.000
    N3191    N        0.62176    0.12875    0.94440    1.000
    N3192    N        0.67707    0.16070    0.90981    1.000
    N3193    N        0.55410    0.20753    0.03282    1.000
    N3194    N        0.58463    0.21037    0.09246    1.000
    Si3195   Si       0.51993    0.19512    0.00786    1.000
    Si3196   Si       0.56260    0.23682    0.06545    1.000
    Si3197   Si       0.59290    0.18959    0.01756    1.000
    N3198    N        0.52542    0.18415    0.12125    1.000
    Si3199   Si       0.62869    0.21130    0.08565    1.000
    N3200    N        0.62792    0.19884    0.04049    1.000
    N3201    N        0.73773    0.22805    0.00615    1.000
    Si3202   Si       0.73539    0.19484    0.03656    1.000
    N3203    N        0.57854    0.19908    0.16219    1.000
    N3204    N        0.52067    0.22984    0.17855    1.000
    Si3205   Si       0.60423    0.22636    0.22686    1.000
    Si3206   Si       0.51063    0.19212    0.16226    1.000
    N3207    N        0.58626    0.18740    0.23288    1.000
    Si3208   Si       0.56085    0.23906    0.16966    1.000
    Si3209   Si       0.67477    0.20652    0.21780    1.000
    N3210    N        0.70909    0.19740    0.19162    1.000
    N3211    N        0.63820    0.22523    0.20347    1.000
    Si3212   Si       0.72087    0.23423    0.17066    1.000
    Si3213   Si       0.53819    0.20535    0.32035    1.000
    N3214    N        0.57115    0.19301    0.29575    1.000
    N3215    N        0.54927    0.20222    0.36354    1.000
    N3216    N        0.49620    0.18950    0.32024    1.000
    Si3217   Si       0.60748    0.21784    0.30146    1.000
    N3218    N        0.49601    0.19845    0.25070    1.000
    Si3219   Si       0.71107    0.20831    0.29281    1.000
    N3220    N        0.69360    0.21849    0.33043    1.000
    N3221    N        0.68221    0.19599    0.26086    1.000
    Si3222   Si       0.64953    0.20998    0.34891    1.000
    Si3223   Si       0.71731    0.24131    0.35828    1.000
    N3224    N        0.63743    0.18832    0.31034    1.000
    N3225    N        0.61958    0.23987    0.26433    1.000
    N3226    N        0.56688    0.22135    0.48817    1.000
    N3227    N        0.54932    0.23733    0.42874    1.000
    Si3228   Si       0.53168    0.23595    0.46951    1.000
    Si3229   Si       0.52726    0.21608    0.39809    1.000
    Si3230   Si       0.58700    0.19632    0.45643    1.000
    N3231    N        0.49603    0.21041    0.46491    1.000
    N3232    N        0.49236    0.18887    0.39665    1.000
    N3233    N        0.66487    0.23034    0.38444    1.000
    Si3234   Si       0.64052    0.20444    0.41076    1.000
    N3235    N        0.61614    0.19319    0.37788    1.000
    N3236    N        0.73590    0.23840    0.44237    1.000
    N3237    N        0.61802    0.22344    0.44101    1.000
    N3238    N        0.54486    0.20446    0.55021    1.000
    Si3239   Si       0.57865    0.22532    0.52981    1.000
    N3240    N        0.50640    0.22316    0.60552    1.000
    Si3241   Si       0.51580    0.23406    0.56483    1.000
    N3242    N        0.61529    0.20299    0.53801    1.000
    Si3243   Si       0.65668    0.20058    0.58971    1.000
    N3244    N        0.67693    0.21874    0.55560    1.000
    Si3245   Si       0.71883    0.22741    0.54985    1.000
    Si3246   Si       0.65305    0.21691    0.52039    1.000
    N3247    N        0.62389    0.22201    0.60692    1.000
    N3248    N        0.73050    0.21852    0.50897    1.000
    N3249    N        0.74152    0.19633    0.57772    1.000
    Si3250   Si       0.60169    0.19632    0.63410    1.000
    Si3251   Si       0.55442    0.19803    0.69415    1.000
    N3252    N        0.56982    0.21777    0.65611    1.000
    N3253    N        0.52977    0.22257    0.72003    1.000
    N3254    N        0.59692    0.18790    0.70800    1.000
    N3255    N        0.65519    0.22704    0.68251    1.000
    Si3256   Si       0.66633    0.18981    0.66433    1.000
    N3257    N        0.66256    0.20084    0.74510    1.000
    Si3258   Si       0.70153    0.19625    0.72418    1.000
    N3259    N        0.68458    0.19667    0.62431    1.000
    Si3260   Si       0.63032    0.21521    0.71736    1.000
    N3261    N        0.72029    0.22342    0.69704    1.000
    N3262    N        0.55920    0.21124    0.83853    1.000
    Si3263   Si       0.52437    0.23365    0.82331    1.000
    N3264    N        0.50273    0.21419    0.79205    1.000
    Si3265   Si       0.53313    0.20520    0.76145    1.000
    Si3266   Si       0.59199    0.23101    0.81762    1.000
    N3267    N        0.49744    0.22552    0.85821    1.000
    N3268    N        0.56154    0.23447    0.77893    1.000
    Si3269   Si       0.49572    0.18153    0.87159    1.000
    N3270    N        0.61139    0.19630    0.79818    1.000
    Si3271   Si       0.65472    0.19733    0.78759    1.000
    N3272    N        0.68536    0.20427    0.86011    1.000
    Si3273   Si       0.69950    0.23309    0.82980    1.000
    N3274    N        0.66675    0.23837    0.80007    1.000
    N3275    N        0.61664    0.24004    0.85538    1.000
    N3276    N        0.73788    0.23673    0.80826    1.000
    N3277    N        0.57632    0.23247    0.92046    1.000
    N3278    N        0.52898    0.21519    0.96984    1.000
    Si3279   Si       0.56713    0.20215    0.94931    1.000
    N3280    N        0.59961    0.20453    0.97834    1.000
    Si3281   Si       0.61119    0.22268    0.89569    1.000
    Si3282   Si       0.49158    0.23861    0.96181    1.000
    Si3283   Si       0.70728    0.23028    0.97065    1.000
    Si3284   Si       0.68096    0.20432    0.90490    1.000
    N3285    N        0.66962    0.21171    0.98649    1.000
    N3286    N        0.64502    0.22097    0.92205    1.000
    Si3287   Si       0.63491    0.22477    0.96445    1.000
    N3288    N        0.71500    0.21198    0.93092    1.000
    N3289    N        0.58482    0.27378    0.05893    1.000
    Si3290   Si       0.52261    0.27577    0.11575    1.000
    N3291    N        0.52465    0.24916    0.08277    1.000
    Si3292   Si       0.62078    0.28346    0.07839    1.000
    N3293    N        0.64447    0.25047    0.09692    1.000
    N3294    N        0.72854    0.29342    0.02309    1.000
    N3295    N        0.56108    0.26887    0.13852    1.000
    Si3296   Si       0.55058    0.28095    0.22461    1.000
    N3297    N        0.57597    0.25182    0.20751    1.000
    Si3298   Si       0.59316    0.29773    0.14644    1.000
    Si3299   Si       0.49746    0.26782    0.17968    1.000
    N3300    N        0.52458    0.29766    0.19345    1.000
    N3301    N        0.62712    0.27603    0.16081    1.000
    Si3302   Si       0.66043    0.27238    0.13087    1.000
    N3303    N        0.68723    0.25454    0.23064    1.000
    N3304    N        0.68439    0.25513    0.16422    1.000
    Si3305   Si       0.72845    0.26074    0.23940    1.000
    Si3306   Si       0.65413    0.26529    0.19561    1.000
    N3307    N        0.63785    0.29264    0.22604    1.000
    Si3308   Si       0.51822    0.28374    0.29156    1.000
    Si3309   Si       0.53667    0.26799    0.35683    1.000
    N3310    N        0.53750    0.25188    0.31717    1.000
    Si3311   Si       0.61035    0.27964    0.35207    1.000
    N3312    N        0.52241    0.26562    0.25277    1.000
    Si3313   Si       0.65303    0.26772    0.25992    1.000
    N3314    N        0.73408    0.29529    0.26663    1.000
    N3315    N        0.66357    0.29747    0.28973    1.000
    N3316    N        0.62033    0.24344    0.33363    1.000
    N3317    N        0.57495    0.27315    0.37617    1.000
    N3318    N        0.50358    0.24947    0.38074    1.000
    Si3319   Si       0.56748    0.27530    0.41861    1.000
    N3320    N        0.60009    0.29197    0.44360    1.000
    N3321    N        0.52035    0.27635    0.48325    1.000
    N3322    N        0.63990    0.30256    0.37491    1.000
    Si3323   Si       0.63013    0.26307    0.45956    1.000
    Si3324   Si       0.66335    0.27161    0.39339    1.000
    N3325    N        0.70668    0.27792    0.38483    1.000
    Si3326   Si       0.71223    0.27242    0.42766    1.000
    N3327    N        0.66939    0.27038    0.43603    1.000
    N3328    N        0.58930    0.26598    0.54181    1.000
    N3329    N        0.52887    0.27530    0.56455    1.000
    Si3330   Si       0.56947    0.28707    0.57316    1.000
    N3331    N        0.58324    0.27545    0.61440    1.000
    Si3332   Si       0.62303    0.26393    0.60328    1.000
    Si3333   Si       0.62711    0.28137    0.52986    1.000
    N3334    N        0.64562    0.28384    0.57062    1.000
    N3335    N        0.71480    0.27024    0.54580    1.000
    Si3336   Si       0.68678    0.29583    0.56782    1.000
    N3337    N        0.70390    0.29323    0.60811    1.000
    N3338    N        0.63975    0.25327    0.50011    1.000
    N3339    N        0.51388    0.26140    0.65803    1.000
    Si3340   Si       0.50969    0.25849    0.70139    1.000
    Si3341   Si       0.55622    0.25937    0.64667    1.000
    N3342    N        0.57584    0.28706    0.67646    1.000
    N3343    N        0.52530    0.29346    0.72179    1.000
    N3344    N        0.70524    0.28568    0.67052    1.000
    N3345    N        0.61802    0.24932    0.73719    1.000
    Si3346   Si       0.73432    0.28499    0.63916    1.000
    Si3347   Si       0.68836    0.25417    0.69369    1.000
    N3348    N        0.64141    0.28442    0.63923    1.000
    N3349    N        0.68120    0.26922    0.73275    1.000
    N3350    N        0.53455    0.27556    0.82324    1.000
    Si3351   Si       0.58625    0.26505    0.76211    1.000
    N3352    N        0.61299    0.26625    0.79786    1.000
    Si3353   Si       0.64231    0.26555    0.82928    1.000
    N3354    N        0.68907    0.26943    0.85317    1.000
    Si3355   Si       0.65164    0.26217    0.76673    1.000
    N3356    N        0.73371    0.29624    0.76563    1.000
    Si3357   Si       0.72763    0.28683    0.86679    1.000
    N3358    N        0.56341    0.29657    0.90120    1.000
    Si3359   Si       0.54699    0.26522    0.92682    1.000
    N3360    N        0.50502    0.25499    0.92056    1.000
    N3361    N        0.55207    0.28901    0.96612    1.000
    Si3362   Si       0.59190    0.29711    0.98029    1.000
    Si3363   Si       0.66640    0.29663    0.87921    1.000
    Si3364   Si       0.65073    0.29361    0.95397    1.000
    N3365    N        0.63900    0.29539    0.91209    1.000
    N3366    N        0.62315    0.26710    0.97210    1.000
    N3367    N        0.69258    0.26957    0.96029    1.000
    Si3368   Si       0.70824    0.30208    0.98535    1.000
    N3369    N        0.51647    0.31524    0.09881    1.000
    N3370    N        0.59804    0.31868    0.01606    1.000
    Si3371   Si       0.56865    0.31376    0.04793    1.000
    N3372    N        0.57406    0.35243    0.07160    1.000
    N3373    N        0.52900    0.31316    0.02934    1.000
    Si3374   Si       0.49578    0.31445    0.06017    1.000
    Si3375   Si       0.60414    0.35449    0.10276    1.000
    N3376    N        0.60877    0.31196    0.11016    1.000
    N3377    N        0.70926    0.34755    0.07362    1.000
    Si3378   Si       0.67144    0.33367    0.08751    1.000
    Si3379   Si       0.63827    0.33191    0.02033    1.000
    N3380    N        0.65117    0.30807    0.05793    1.000
    Si3381   Si       0.73744    0.31782    0.05719    1.000
    Si3382   Si       0.50352    0.34787    0.12825    1.000
    N3383    N        0.58103    0.32963    0.16935    1.000
    Si3384   Si       0.54511    0.33738    0.19506    1.000
    N3385    N        0.57049    0.31742    0.23047    1.000
    N3386    N        0.51384    0.35559    0.16911    1.000
    Si3387   Si       0.61191    0.32640    0.22928    1.000
    N3388    N        0.68151    0.30997    0.12332    1.000
    N3389    N        0.69736    0.33617    0.18718    1.000
    Si3390   Si       0.73072    0.34597    0.21831    1.000
    Si3391   Si       0.71082    0.32902    0.14892    1.000
    Si3392   Si       0.55561    0.32709    0.33024    1.000
    N3393    N        0.52367    0.31020    0.35653    1.000
    N3394    N        0.54023    0.32106    0.29166    1.000
    Si3395   Si       0.56939    0.34216    0.26684    1.000
    N3396    N        0.59643    0.31073    0.32577    1.000
    N3397    N        0.61225    0.34082    0.26836    1.000
    Si3398   Si       0.63170    0.32537    0.30380    1.000
    N3399    N        0.71812    0.33123    0.32155    1.000
    Si3400   Si       0.70090    0.32257    0.28224    1.000
    N3401    N        0.64745    0.35693    0.32588    1.000
    Si3402   Si       0.65201    0.34266    0.36810    1.000
    N3403    N        0.69808    0.35121    0.24793    1.000
    Si3404   Si       0.72883    0.30276    0.35366    1.000
    N3405    N        0.57637    0.34491    0.40113    1.000
    Si3406   Si       0.58988    0.33430    0.44001    1.000
    Si3407   Si       0.53418    0.33332    0.39354    1.000
    Si3408   Si       0.52157    0.31823    0.46294    1.000
    N3409    N        0.55528    0.34668    0.46892    1.000
    N3410    N        0.53495    0.30323    0.42395    1.000
    N3411    N        0.62091    0.36152    0.45271    1.000
    Si3412   Si       0.71832    0.34516    0.41508    1.000
    Si3413   Si       0.63000    0.35564    0.49589    1.000
    N3414    N        0.72374    0.31234    0.44361    1.000
    N3415    N        0.67743    0.35058    0.40453    1.000
    N3416    N        0.57306    0.33015    0.57770    1.000
    N3417    N        0.50803    0.34505    0.57299    1.000
    Si3418   Si       0.54553    0.35897    0.59235    1.000
    Si3419   Si       0.49632    0.30254    0.56648    1.000
    N3420    N        0.63664    0.31748    0.51315    1.000
    N3421    N        0.69465    0.33576    0.55350    1.000
    Si3422   Si       0.73471    0.34916    0.56123    1.000
    Si3423   Si       0.56503    0.30951    0.71274    1.000
    N3424    N        0.56305    0.35111    0.70222    1.000
    Si3425   Si       0.60232    0.30435    0.64690    1.000
    N3426    N        0.61439    0.34780    0.64655    1.000
    Si3427   Si       0.72854    0.35386    0.63707    1.000
    N3428    N        0.68400    0.34799    0.63668    1.000
    N3429    N        0.70014    0.34932    0.72723    1.000
    Si3430   Si       0.67725    0.30679    0.64276    1.000
    N3431    N        0.63105    0.35056    0.72321    1.000
    Si3432   Si       0.73808    0.36406    0.71172    1.000
    N3433    N        0.52833    0.34506    0.84774    1.000
    Si3434   Si       0.60637    0.34318    0.76155    1.000
    Si3435   Si       0.50900    0.30941    0.82742    1.000
    Si3436   Si       0.50147    0.31528    0.75051    1.000
    N3437    N        0.58498    0.30718    0.75285    1.000
    N3438    N        0.51234    0.35926    0.75301    1.000
    Si3439   Si       0.65630    0.33142    0.81191    1.000
    N3440    N        0.68892    0.35541    0.82793    1.000
    Si3441   Si       0.73260    0.35527    0.82644    1.000
    N3442    N        0.64025    0.30752    0.84548    1.000
    N3443    N        0.66400    0.30497    0.77802    1.000
    N3444    N        0.63141    0.36090    0.79358    1.000
    Si3445   Si       0.69655    0.30885    0.74762    1.000
    N3446    N        0.58228    0.35337    0.89715    1.000
    Si3447   Si       0.51672    0.30775    0.98863    1.000
    N3448    N        0.49930    0.34812    0.98038    1.000
    Si3449   Si       0.60134    0.31647    0.91275    1.000
    Si3450   Si       0.54206    0.33328    0.88865    1.000
    N3451    N        0.50229    0.33791    0.91159    1.000
    N3452    N        0.61037    0.32722    0.95406    1.000
    N3453    N        0.66693    0.31804    0.98905    1.000
    N3454    N        0.70503    0.30893    0.89710    1.000
    N3455    N        0.73444    0.32621    0.96210    1.000
    Si3456   Si       0.70825    0.33826    0.92931    1.000
    N3457    N        0.66895    0.35720    0.93502    1.000
    N3458    N        0.51450    0.38620    0.03758    1.000
    N3459    N        0.52008    0.38643    0.11036    1.000
    Si3460   Si       0.53517    0.37095    0.07121    1.000
    Si3461   Si       0.65012    0.40944    0.09244    1.000
    Si3462   Si       0.72316    0.38363    0.09489    1.000
    N3463    N        0.64415    0.36778    0.09001    1.000
    N3464    N        0.63922    0.37382    0.00645    1.000
    Si3465   Si       0.65786    0.41160    0.01678    1.000
    N3466    N        0.69346    0.41530    0.08826    1.000
    N3467    N        0.59841    0.38121    0.13587    1.000
    N3468    N        0.56005    0.37567    0.20841    1.000
    Si3469   Si       0.54835    0.40662    0.23703    1.000
    N3470    N        0.50412    0.40410    0.23231    1.000
    Si3471   Si       0.59443    0.37591    0.18005    1.000
    Si3472   Si       0.49601    0.38740    0.19280    1.000
    N3473    N        0.68163    0.40050    0.20136    1.000
    N3474    N        0.71616    0.37102    0.13646    1.000
    Si3475   Si       0.71393    0.39634    0.17238    1.000
    N3476    N        0.62849    0.35968    0.20479    1.000
    Si3477   Si       0.67010    0.36044    0.21248    1.000
    Si3478   Si       0.55912    0.40198    0.31206    1.000
    N3479    N        0.55989    0.38380    0.27342    1.000
    N3480    N        0.55812    0.36904    0.34207    1.000
    N3481    N        0.59769    0.41853    0.32721    1.000
    Si3482   Si       0.63526    0.39766    0.33033    1.000
    N3483    N        0.73331    0.40106    0.31515    1.000
    Si3484   Si       0.58519    0.38002    0.37647    1.000
    N3485    N        0.50619    0.36486    0.40070    1.000
    Si3486   Si       0.56215    0.38305    0.49248    1.000
    N3487    N        0.57255    0.41779    0.46737    1.000
    Si3488   Si       0.70418    0.42100    0.41922    1.000
    Si3489   Si       0.66731    0.41780    0.48650    1.000
    Si3490   Si       0.64669    0.37917    0.42088    1.000
    N3491    N        0.66656    0.41243    0.44173    1.000
    N3492    N        0.62901    0.38199    0.38047    1.000
    N3493    N        0.72989    0.38660    0.42646    1.000
    N3494    N        0.57152    0.39203    0.57964    1.000
    N3495    N        0.53309    0.39207    0.52250    1.000
    Si3496   Si       0.49988    0.37956    0.54795    1.000
    Si3497   Si       0.52358    0.41539    0.61660    1.000
    N3498    N        0.50443    0.41581    0.57522    1.000
    N3499    N        0.59652    0.37234    0.51639    1.000
    Si3500   Si       0.59728    0.36523    0.55924    1.000
    Si3501   Si       0.67198    0.37450    0.55054    1.000
    N3502    N        0.68628    0.41141    0.56870    1.000
    Si3503   Si       0.72767    0.41329    0.58440    1.000
    N3504    N        0.66355    0.37940    0.50746    1.000
    N3505    N        0.63566    0.36710    0.57938    1.000
    N3506    N        0.73574    0.38039    0.53041    1.000
    N3507    N        0.73662    0.37273    0.59767    1.000
    Si3508   Si       0.54671    0.38019    0.73255    1.000
    Si3509   Si       0.54788    0.37838    0.67056    1.000
    N3510    N        0.51414    0.38998    0.69662    1.000
    N3511    N        0.58593    0.40246    0.67295    1.000
    N3512    N        0.53337    0.37627    0.63084    1.000
    Si3513   Si       0.61310    0.36899    0.68690    1.000
    Si3514   Si       0.64580    0.36838    0.62265    1.000
    Si3515   Si       0.66498    0.37594    0.72308    1.000
    N3516    N        0.64975    0.39451    0.68676    1.000
    N3517    N        0.64872    0.41224    0.62398    1.000
    N3518    N        0.73977    0.37855    0.67053    1.000
    Si3519   Si       0.51001    0.38387    0.84044    1.000
    N3520    N        0.57729    0.37402    0.76215    1.000
    N3521    N        0.55179    0.40629    0.82342    1.000
    Si3522   Si       0.56682    0.40986    0.78458    1.000
    N3523    N        0.50826    0.41673    0.86735    1.000
    Si3524   Si       0.68888    0.39410    0.84684    1.000
    Si3525   Si       0.64050    0.40306    0.78891    1.000
    N3526    N        0.65884    0.40906    0.75135    1.000
    N3527    N        0.67064    0.41768    0.81734    1.000
    N3528    N        0.73524    0.39616    0.84584    1.000
    Si3529   Si       0.58168    0.39145    0.91812    1.000
    N3530    N        0.54189    0.39348    0.93527    1.000
    Si3531   Si       0.50479    0.37098    0.94281    1.000
    N3532    N        0.60870    0.39722    0.95042    1.000
    N3533    N        0.67905    0.40966    0.88564    1.000
    Si3534   Si       0.68803    0.39498    0.92394    1.000
    N3535    N        0.72536    0.37421    0.91327    1.000
    Si3536   Si       0.63541    0.36291    0.96292    1.000
    N3537    N        0.52428    0.45332    0.04747    1.000
    Si3538   Si       0.56236    0.46783    0.03062    1.000
    N3539    N        0.59383    0.46966    0.05882    1.000
    N3540    N        0.56916    0.42911    0.00901    1.000
    Si3541   Si       0.50387    0.47641    0.07728    1.000
    Si3542   Si       0.52750    0.42131    0.02014    1.000
    N3543    N        0.49180    0.45017    0.10840    1.000
    Si3544   Si       0.57486    0.47690    0.09838    1.000
    N3545    N        0.73633    0.46785    0.07464    1.000
    N3546    N        0.63873    0.42658    0.05362    1.000
    Si3547   Si       0.70029    0.44770    0.05867    1.000
    Si3548   Si       0.63136    0.46709    0.03743    1.000
    N3549    N        0.69951    0.42363    0.02224    1.000
    N3550    N        0.56318    0.44196    0.12246    1.000
    Si3551   Si       0.52299    0.42620    0.13030    1.000
    N3552    N        0.60259    0.42500    0.18393    1.000
    N3553    N        0.55937    0.44950    0.23213    1.000
    Si3554   Si       0.59931    0.45433    0.21620    1.000
    Si3555   Si       0.60002    0.42544    0.14113    1.000
    N3556    N        0.50059    0.42465    0.16899    1.000
    N3557    N        0.49149    0.47570    0.24681    1.000
    N3558    N        0.65884    0.46783    0.18806    1.000
    N3559    N        0.62848    0.44118    0.24753    1.000
    N3560    N        0.64131    0.43143    0.12900    1.000
    Si3561   Si       0.67307    0.45340    0.14926    1.000
    Si3562   Si       0.66423    0.43764    0.21948    1.000
    N3563    N        0.71300    0.43727    0.15825    1.000
    Si3564   Si       0.58999    0.44886    0.35815    1.000
    N3565    N        0.52670    0.43040    0.30692    1.000
    Si3566   Si       0.52836    0.47244    0.31898    1.000
    N3567    N        0.55313    0.47208    0.35467    1.000
    Si3568   Si       0.65131    0.45245    0.28153    1.000
    N3569    N        0.72145    0.46313    0.32060    1.000
    N3570    N        0.68708    0.45277    0.25354    1.000
    Si3571   Si       0.71901    0.47037    0.27620    1.000
    Si3572   Si       0.70229    0.42622    0.33389    1.000
    N3573    N        0.66281    0.42555    0.31544    1.000
    N3574    N        0.61786    0.47984    0.36614    1.000
    N3575    N        0.52799    0.45220    0.42012    1.000
    N3576    N        0.60179    0.46323    0.43439    1.000
    Si3577   Si       0.59935    0.45178    0.47535    1.000
    Si3578   Si       0.56861    0.43487    0.42901    1.000
    Si3579   Si       0.49035    0.45003    0.44283    1.000
    N3580    N        0.57760    0.42090    0.39066    1.000
    N3581    N        0.70345    0.42641    0.37593    1.000
    Si3582   Si       0.72047    0.47110    0.47538    1.000
    N3583    N        0.72249    0.45974    0.43392    1.000
    N3584    N        0.70582    0.43573    0.49473    1.000
    N3585    N        0.63335    0.43982    0.49848    1.000
    N3586    N        0.55316    0.45972    0.56054    1.000
    Si3587   Si       0.58093    0.43392    0.58667    1.000
    Si3588   Si       0.52818    0.43316    0.54034    1.000
    N3589    N        0.49623    0.44808    0.51417    1.000
    N3590    N        0.61822    0.44715    0.56879    1.000
    N3591    N        0.67670    0.47055    0.60052    1.000
    Si3592   Si       0.62362    0.46701    0.53111    1.000
    Si3593   Si       0.65607    0.43576    0.58842    1.000
    N3594    N        0.55612    0.44095    0.62346    1.000
    N3595    N        0.56526    0.45852    0.70189    1.000
    Si3596   Si       0.57723    0.44319    0.66262    1.000
    Si3597   Si       0.53230    0.45658    0.72645    1.000
    N3598    N        0.49482    0.45576    0.69900    1.000
    N3599    N        0.61431    0.46172    0.65353    1.000
    N3600    N        0.68102    0.45608    0.66772    1.000
    N3601    N        0.70794    0.46184    0.73806    1.000
    Si3602   Si       0.70636    0.46478    0.63289    1.000
    Si3603   Si       0.74051    0.43824    0.72395    1.000
    N3604    N        0.73367    0.43360    0.62441    1.000
    N3605    N        0.64167    0.46938    0.71615    1.000
    Si3606   Si       0.64569    0.43113    0.66325    1.000
    Si3607   Si       0.66710    0.45143    0.74778    1.000
    Si3608   Si       0.55287    0.42979    0.86064    1.000
    N3609    N        0.60489    0.42970    0.79228    1.000
    Si3610   Si       0.49711    0.45921    0.85833    1.000
    N3611    N        0.53907    0.47112    0.85754    1.000
    Si3612   Si       0.61298    0.47376    0.78817    1.000
    N3613    N        0.54110    0.42221    0.75181    1.000
    Si3614   Si       0.68063    0.45934    0.82026    1.000
    N3615    N        0.72393    0.46677    0.82349    1.000
    N3616    N        0.65566    0.47218    0.78463    1.000
    N3617    N        0.66144    0.47372    0.85576    1.000
    Si3618   Si       0.53578    0.43611    0.94885    1.000
    Si3619   Si       0.59974    0.42804    0.97683    1.000
    N3620    N        0.57715    0.45509    0.95054    1.000
    Si3621   Si       0.60027    0.46091    0.91253    1.000
    N3622    N        0.58184    0.42512    0.89062    1.000
    N3623    N        0.52030    0.47562    0.93997    1.000
    N3624    N        0.50779    0.42709    0.98231    1.000
    Si3625   Si       0.67184    0.45132    0.89111    1.000
    N3626    N        0.63658    0.44548    0.99467    1.000
    Si3627   Si       0.72476    0.42198    0.98581    1.000
    N3628    N        0.64335    0.45450    0.92270    1.000
    N3629    N        0.68846    0.41986    0.95999    1.000
    N3630    N        0.70771    0.47058    0.90806    1.000
    Si3631   Si       0.66480    0.45625    0.96194    1.000
    N3632    N        0.53821    0.49990    0.09172    1.000
    Si3633   Si       0.58900    0.52767    0.01928    1.000
    N3634    N        0.56203    0.50016    0.00176    1.000
    N3635    N        0.68272    0.48605    0.12245    1.000
    Si3636   Si       0.67763    0.52321    0.05561    1.000
    N3637    N        0.62777    0.50814    0.01731    1.000
    Si3638   Si       0.72209    0.49772    0.10742    1.000
    N3639    N        0.71854    0.52930    0.07642    1.000
    N3640    N        0.67413    0.48034    0.05084    1.000
    N3641    N        0.64913    0.53440    0.08530    1.000
    Si3642   Si       0.64687    0.50929    0.12241    1.000
    N3643    N        0.60350    0.49726    0.12228    1.000
    N3644    N        0.53881    0.51573    0.21834    1.000
    N3645    N        0.60344    0.49835    0.20796    1.000
    Si3646   Si       0.57838    0.53393    0.21613    1.000
    N3647    N        0.49948    0.54261    0.15994    1.000
    N3648    N        0.65873    0.53301    0.22918    1.000
    Si3649   Si       0.64470    0.50769    0.19431    1.000
    N3650    N        0.65039    0.53270    0.16022    1.000
    N3651    N        0.54652    0.49282    0.28569    1.000
    N3652    N        0.59154    0.52763    0.32641    1.000
    Si3653   Si       0.56702    0.52939    0.29143    1.000
    Si3654   Si       0.53427    0.48119    0.24508    1.000
    Si3655   Si       0.66827    0.52194    0.26972    1.000
    Si3656   Si       0.63042    0.50873    0.33538    1.000
    N3657    N        0.64816    0.49329    0.29739    1.000
    N3658    N        0.71037    0.51420    0.27274    1.000
    N3659    N        0.57058    0.50980    0.40659    1.000
    N3660    N        0.50502    0.51087    0.39596    1.000
    Si3661   Si       0.49526    0.52701    0.43507    1.000
    Si3662   Si       0.53728    0.48394    0.39213    1.000
    N3663    N        0.49178    0.48834    0.46201    1.000
    Si3664   Si       0.61209    0.49534    0.40689    1.000
    N3665    N        0.69707    0.51028    0.47836    1.000
    N3666    N        0.64271    0.52518    0.41624    1.000
    N3667    N        0.71076    0.52232    0.38690    1.000
    Si3668   Si       0.73154    0.53903    0.47103    1.000
    Si3669   Si       0.73573    0.49307    0.40945    1.000
    N3670    N        0.62935    0.54063    0.49178    1.000
    Si3671   Si       0.67348    0.54277    0.39132    1.000
    N3672    N        0.58689    0.52111    0.55419    1.000
    N3673    N        0.52573    0.51047    0.59348    1.000
    N3674    N        0.52456    0.51853    0.52083    1.000
    Si3675   Si       0.54723    0.50249    0.55691    1.000
    Si3676   Si       0.59206    0.52883    0.51143    1.000
    Si3677   Si       0.49631    0.49124    0.50517    1.000
    N3678    N        0.59254    0.48456    0.50281    1.000
    Si3679   Si       0.67338    0.50586    0.57684    1.000
    N3680    N        0.71300    0.52253    0.57519    1.000
    N3681    N        0.65619    0.49536    0.53811    1.000
    Si3682   Si       0.66657    0.52219    0.50628    1.000
    Si3683   Si       0.72733    0.53019    0.61652    1.000
    N3684    N        0.64683    0.53495    0.59713    1.000
    N3685    N        0.58837    0.52251    0.62124    1.000
    Si3686   Si       0.54653    0.52624    0.62985    1.000
    N3687    N        0.59755    0.51674    0.69108    1.000
    N3688    N        0.52891    0.50977    0.66477    1.000
    Si3689   Si       0.61468    0.50523    0.65200    1.000
    Si3690   Si       0.48905    0.49424    0.67429    1.000
    Si3691   Si       0.60033    0.48179    0.71674    1.000
    N3692    N        0.65534    0.51867    0.65938    1.000
    N3693    N        0.73083    0.49824    0.64334    1.000
    Si3694   Si       0.67003    0.49201    0.69188    1.000
    Si3695   Si       0.72280    0.50381    0.73572    1.000
    N3696    N        0.68709    0.52125    0.71946    1.000
    Si3697   Si       0.55796    0.50596    0.83927    1.000
    Si3698   Si       0.55463    0.51954    0.76247    1.000
    N3699    N        0.54216    0.52579    0.80301    1.000
    N3700    N        0.58931    0.49228    0.75669    1.000
    N3701    N        0.59777    0.49302    0.82458    1.000
    N3702    N        0.52293    0.49139    0.75179    1.000
    Si3703   Si       0.49173    0.49339    0.78418    1.000
    Si3704   Si       0.62916    0.50302    0.85578    1.000
    N3705    N        0.73056    0.52374    0.77369    1.000
    Si3706   Si       0.73577    0.50779    0.81284    1.000
    N3707    N        0.56927    0.52906    0.93846    1.000
    Si3708   Si       0.55424    0.49443    0.95818    1.000
    N3709    N        0.60688    0.49886    0.89157    1.000
    Si3710   Si       0.58827    0.53698    0.89985    1.000
    Si3711   Si       0.72210    0.53111    0.98926    1.000
    Si3712   Si       0.69607    0.50853    0.92761    1.000
    Si3713   Si       0.65281    0.52546    0.98801    1.000
    N3714    N        0.67299    0.53252    0.90148    1.000
    N3715    N        0.67810    0.49809    0.96610    1.000
    N3716    N        0.73325    0.52523    0.94628    1.000
    Si3717   Si       0.51824    0.57821    0.01680    1.000
    N3718    N        0.51552    0.54951    0.04849    1.000
    N3719    N        0.54184    0.56619    0.11384    1.000
    N3720    N        0.58196    0.54340    0.05909    1.000
    N3721    N        0.59227    0.56384    0.99727    1.000
    Si3722   Si       0.54433    0.54060    0.07955    1.000
    Si3723   Si       0.59496    0.59774    0.02909    1.000
    Si3724   Si       0.61422    0.56113    0.08444    1.000
    Si3725   Si       0.69649    0.58496    0.01631    1.000
    Si3726   Si       0.73100    0.57398    0.07570    1.000
    N3727    N        0.68595    0.54171    0.01571    1.000
    N3728    N        0.62579    0.59227    0.05944    1.000
    N3729    N        0.69728    0.59535    0.05821    1.000
    N3730    N        0.67204    0.59895    0.12115    1.000
    N3731    N        0.73627    0.57301    0.99635    1.000
    N3732    N        0.60715    0.57261    0.12645    1.000
    Si3733   Si       0.51527    0.54790    0.19896    1.000
    N3734    N        0.51017    0.58792    0.21709    1.000
    Si3735   Si       0.50140    0.57301    0.12753    1.000
    Si3736   Si       0.57020    0.57424    0.14590    1.000
    N3737    N        0.56286    0.56645    0.18737    1.000
    Si3738   Si       0.65505    0.57618    0.22043    1.000
    Si3739   Si       0.64619    0.57532    0.14628    1.000
    N3740    N        0.54230    0.55954    0.31072    1.000
    Si3741   Si       0.50275    0.57462    0.30771    1.000
    Si3742   Si       0.57455    0.56905    0.33865    1.000
    N3743    N        0.58701    0.54620    0.25669    1.000
    Si3744   Si       0.59640    0.58587    0.27084    1.000
    N3745    N        0.60569    0.59022    0.31415    1.000
    Si3746   Si       0.64768    0.57737    0.32344    1.000
    N3747    N        0.66665    0.56188    0.28808    1.000
    N3748    N        0.73167    0.58081    0.28201    1.000
    N3749    N        0.72836    0.58535    0.34609    1.000
    N3750    N        0.65430    0.54147    0.35182    1.000
    Si3751   Si       0.69145    0.59258    0.26955    1.000
    N3752    N        0.56506    0.57812    0.37839    1.000
    N3753    N        0.52453    0.56039    0.43547    1.000
    Si3754   Si       0.56352    0.55083    0.41443    1.000
    N3755    N        0.59389    0.56267    0.44062    1.000
    Si3756   Si       0.58416    0.59280    0.47117    1.000
    N3757    N        0.51122    0.59453    0.49000    1.000
    N3758    N        0.73625    0.57974    0.45830    1.000
    Si3759   Si       0.63417    0.54985    0.45080    1.000
    Si3760   Si       0.70121    0.59455    0.43906    1.000
    N3761    N        0.68865    0.58233    0.40041    1.000
    N3762    N        0.66624    0.57957    0.46077    1.000
    N3763    N        0.53106    0.57370    0.55530    1.000
    Si3764   Si       0.50693    0.57452    0.59056    1.000
    N3765    N        0.60063    0.58381    0.57242    1.000
    Si3766   Si       0.51782    0.56071    0.51685    1.000
    N3767    N        0.57067    0.56784    0.50599    1.000
    Si3768   Si       0.60437    0.54289    0.58781    1.000
    Si3769   Si       0.56994    0.59159    0.54356    1.000
    N3770    N        0.67860    0.56035    0.52450    1.000
    Si3771   Si       0.71769    0.55300    0.54405    1.000
    N3772    N        0.73022    0.59028    0.56284    1.000
    Si3773   Si       0.65169    0.58652    0.50283    1.000
    N3774    N        0.53720    0.56928    0.62338    1.000
    N3775    N        0.56031    0.55581    0.73724    1.000
    Si3776   Si       0.58974    0.55611    0.70519    1.000
    N3777    N        0.58018    0.59167    0.67971    1.000
    Si3778   Si       0.53505    0.59303    0.74153    1.000
    N3779    N        0.49683    0.58012    0.72622    1.000
    N3780    N        0.64355    0.58761    0.64975    1.000
    Si3781   Si       0.66279    0.55435    0.73644    1.000
    N3782    N        0.62931    0.57283    0.71602    1.000
    N3783    N        0.70415    0.56286    0.63087    1.000
    Si3784   Si       0.66152    0.55189    0.63402    1.000
    Si3785   Si       0.51036    0.55802    0.80241    1.000
    N3786    N        0.49519    0.56663    0.84290    1.000
    N3787    N        0.59625    0.59017    0.80489    1.000
    N3788    N        0.52776    0.59301    0.78527    1.000
    N3789    N        0.55707    0.53964    0.86903    1.000
    Si3790   Si       0.52903    0.57411    0.87012    1.000
    Si3791   Si       0.68138    0.55002    0.86191    1.000
    Si3792   Si       0.63311    0.56818    0.80613    1.000
    Si3793   Si       0.73011    0.56435    0.76183    1.000
    N3794    N        0.64181    0.54335    0.77335    1.000
    N3795    N        0.64567    0.54034    0.83864    1.000
    N3796    N        0.69328    0.58159    0.74674    1.000
    N3797    N        0.71747    0.53736    0.84067    1.000
    Si3798   Si       0.56327    0.55981    0.96557    1.000
    N3799    N        0.52244    0.58418    0.91136    1.000
    Si3800   Si       0.49528    0.56344    0.94105    1.000
    N3801    N        0.52211    0.56410    0.97678    1.000
    N3802    N        0.57886    0.59562    0.94577    1.000
    Si3803   Si       0.61807    0.59311    0.96839    1.000
    Si3804   Si       0.65539    0.57047    0.92015    1.000
    N3805    N        0.68402    0.59492    0.86996    1.000
    N3806    N        0.69849    0.58664    0.92774    1.000
    N3807    N        0.64296    0.55787    0.96057    1.000
    N3808    N        0.61500    0.56941    0.89820    1.000
    Si3809   Si       0.51838    0.63880    0.03156    1.000
    N3810    N        0.51149    0.64565    0.07281    1.000
    N3811    N        0.54986    0.60620    0.02933    1.000
    N3812    N        0.48878    0.61198    0.01408    1.000
    N3813    N        0.61134    0.62518    0.00015    1.000
    Si3814   Si       0.66124    0.60944    0.08021    1.000
    N3815    N        0.64984    0.65058    0.08261    1.000
    N3816    N        0.55226    0.64283    0.19611    1.000
    N3817    N        0.49609    0.61199    0.14369    1.000
    Si3818   Si       0.54919    0.60384    0.21263    1.000
    Si3819   Si       0.49567    0.65355    0.14450    1.000
    Si3820   Si       0.71029    0.62009    0.12953    1.000
    N3821    N        0.63010    0.59823    0.24771    1.000
    N3822    N        0.64796    0.59666    0.18328    1.000
    Si3823   Si       0.67331    0.63259    0.18677    1.000
    N3824    N        0.71405    0.62805    0.17203    1.000
    N3825    N        0.69431    0.59488    0.22822    1.000
    N3826    N        0.50248    0.61292    0.33028    1.000
    Si3827   Si       0.60479    0.63430    0.33095    1.000
    Si3828   Si       0.52800    0.64612    0.33895    1.000
    N3829    N        0.56488    0.64325    0.31556    1.000
    N3830    N        0.56414    0.60844    0.25477    1.000
    Si3831   Si       0.56514    0.64864    0.27093    1.000
    N3832    N        0.67793    0.63341    0.27942    1.000
    N3833    N        0.66254    0.61380    0.33971    1.000
    Si3834   Si       0.64400    0.63919    0.25355    1.000
    Si3835   Si       0.67125    0.65055    0.31878    1.000
    Si3836   Si       0.69690    0.60753    0.36596    1.000
    N3837    N        0.60089    0.63157    0.37424    1.000
    N3838    N        0.53457    0.64248    0.38281    1.000
    Si3839   Si       0.56778    0.61823    0.39838    1.000
    N3840    N        0.56145    0.62044    0.44403    1.000
    N3841    N        0.49242    0.63338    0.43882    1.000
    Si3842   Si       0.52210    0.60250    0.44925    1.000
    N3843    N        0.61551    0.61131    0.49348    1.000
    N3844    N        0.70372    0.63772    0.44103    1.000
    Si3845   Si       0.70183    0.64956    0.48315    1.000
    N3846    N        0.71072    0.64807    0.37510    1.000
    N3847    N        0.56904    0.63328    0.55299    1.000
    Si3848   Si       0.59791    0.62399    0.58633    1.000
    Si3849   Si       0.70589    0.61927    0.53814    1.000
    N3850    N        0.63515    0.64221    0.59778    1.000
    N3851    N        0.67337    0.62434    0.50967    1.000
    Si3852   Si       0.72311    0.64911    0.60245    1.000
    Si3853   Si       0.63799    0.64876    0.49979    1.000
    N3854    N        0.69596    0.64879    0.56855    1.000
    N3855    N        0.73484    0.62665    0.50516    1.000
    N3856    N        0.57669    0.63070    0.62399    1.000
    N3857    N        0.52220    0.62813    0.65985    1.000
    N3858    N        0.54067    0.63511    0.72957    1.000
    Si3859   Si       0.55260    0.60162    0.64708    1.000
    Si3860   Si       0.53307    0.65548    0.69140    1.000
    Si3861   Si       0.65241    0.62630    0.63299    1.000
    Si3862   Si       0.62048    0.60839    0.69317    1.000
    N3863    N        0.69551    0.62928    0.63337    1.000
    Si3864   Si       0.72437    0.60096    0.64184    1.000
    N3865    N        0.63053    0.64562    0.66745    1.000
    N3866    N        0.61855    0.63538    0.72902    1.000
    N3867    N        0.54366    0.60938    0.85073    1.000
    Si3868   Si       0.55930    0.61134    0.80876    1.000
    N3869    N        0.56275    0.65265    0.79580    1.000
    Si3870   Si       0.54350    0.64744    0.86996    1.000
    Si3871   Si       0.66346    0.62357    0.84645    1.000
    Si3872   Si       0.69313    0.61048    0.77977    1.000
    N3873    N        0.68872    0.64908    0.76061    1.000
    N3874    N        0.66084    0.60172    0.80791    1.000
    N3875    N        0.73497    0.59890    0.79031    1.000
    N3876    N        0.62593    0.63347    0.86767    1.000
    N3877    N        0.68611    0.65816    0.83798    1.000
    Si3878   Si       0.54581    0.61771    0.92846    1.000
    N3879    N        0.57363    0.64052    0.90189    1.000
    N3880    N        0.52677    0.63964    0.96079    1.000
    Si3881   Si       0.60840    0.61172    0.90253    1.000
    Si3882   Si       0.67244    0.63614    0.95196    1.000
    Si3883   Si       0.72294    0.59691    0.96102    1.000
    Si3884   Si       0.71300    0.61432    0.89821    1.000
    N3885    N        0.69829    0.64955    0.91951    1.000
    N3886    N        0.68983    0.61458    0.98448    1.000
    N3887    N        0.63883    0.61357    0.93631    1.000
    N3888    N        0.52816    0.67793    0.01647    1.000
    Si3889   Si       0.54321    0.67061    0.09141    1.000
    N3890    N        0.58446    0.66868    0.08042    1.000
    Si3891   Si       0.50839    0.71045    0.03914    1.000
    N3892    N        0.52797    0.70826    0.07615    1.000
    Si3893   Si       0.62223    0.68468    0.07100    1.000
    N3894    N        0.63081    0.69100    0.02776    1.000
    Si3895   Si       0.66814    0.67546    0.11492    1.000
    N3896    N        0.64494    0.71095    0.09893    1.000
    N3897    N        0.70915    0.65902    0.10990    1.000
    Si3898   Si       0.52199    0.67132    0.21331    1.000
    N3899    N        0.54200    0.70459    0.19200    1.000
    N3900    N        0.53600    0.66672    0.13386    1.000
    Si3901   Si       0.56181    0.67474    0.16744    1.000
    N3902    N        0.60221    0.69492    0.16215    1.000
    N3903    N        0.60982    0.70809    0.22306    1.000
    N3904    N        0.48927    0.66074    0.18705    1.000
    Si3905   Si       0.63686    0.69112    0.18591    1.000
    N3906    N        0.65984    0.66104    0.21928    1.000
    Si3907   Si       0.68281    0.69952    0.23236    1.000
    N3908    N        0.65960    0.66320    0.15608    1.000
    N3909    N        0.51473    0.68445    0.32573    1.000
    N3910    N        0.52714    0.67060    0.25756    1.000
    Si3911   Si       0.49537    0.68332    0.28599    1.000
    N3912    N        0.59060    0.70343    0.36322    1.000
    N3913    N        0.60645    0.65878    0.26538    1.000
    Si3914   Si       0.61621    0.70328    0.26378    1.000
    N3915    N        0.63278    0.67003    0.32788    1.000
    N3916    N        0.70275    0.68307    0.32088    1.000
    N3917    N        0.66057    0.70460    0.26755    1.000
    Si3918   Si       0.61750    0.71269    0.33181    1.000
    Si3919   Si       0.73719    0.66995    0.34732    1.000
    N3920    N        0.60253    0.67619    0.48304    1.000
    N3921    N        0.52973    0.68392    0.43806    1.000
    Si3922   Si       0.50123    0.66442    0.46772    1.000
    N3923    N        0.50034    0.70314    0.38721    1.000
    Si3924   Si       0.56702    0.66432    0.45789    1.000
    Si3925   Si       0.50301    0.66199    0.40259    1.000
    N3926    N        0.59185    0.67614    0.42437    1.000
    N3927    N        0.53605    0.66196    0.49396    1.000
    Si3928   Si       0.61252    0.67195    0.38610    1.000
    Si3929   Si       0.69358    0.66716    0.41051    1.000
    Si3930   Si       0.62890    0.68729    0.44710    1.000
    N3931    N        0.66490    0.67849    0.47928    1.000
    N3932    N        0.72705    0.68600    0.49080    1.000
    N3933    N        0.70276    0.71064    0.40626    1.000
    Si3934   Si       0.69170    0.71237    0.49034    1.000
    N3935    N        0.65020    0.67475    0.40876    1.000
    N3936    N        0.50304    0.66984    0.55184    1.000
    Si3937   Si       0.60644    0.69951    0.51971    1.000
    Si3938   Si       0.54385    0.66596    0.53765    1.000
    N3939    N        0.56870    0.70382    0.54015    1.000
    Si3940   Si       0.65795    0.66813    0.57272    1.000
    N3941    N        0.63308    0.67018    0.53857    1.000
    N3942    N        0.65663    0.71006    0.58436    1.000
    Si3943   Si       0.59477    0.66314    0.64638    1.000
    N3944    N        0.60525    0.70227    0.63033    1.000
    N3945    N        0.57259    0.67275    0.68120    1.000
    N3946    N        0.50072    0.68445    0.69198    1.000
    Si3947   Si       0.59875    0.67258    0.71583    1.000
    N3948    N        0.57602    0.69420    0.74426    1.000
    N3949    N        0.64002    0.69209    0.71977    1.000
    N3950    N        0.72600    0.68961    0.61841    1.000
    Si3951   Si       0.72110    0.66032    0.73331    1.000
    Si3952   Si       0.71527    0.68673    0.66061    1.000
    Si3953   Si       0.65927    0.67039    0.68703    1.000
    N3954    N        0.67178    0.69821    0.65541    1.000
    N3955    N        0.70053    0.66036    0.69427    1.000
    N3956    N        0.73133    0.70162    0.74351    1.000
    Si3957   Si       0.59235    0.68222    0.81418    1.000
    N3958    N        0.50359    0.68360    0.76321    1.000
    N3959    N        0.56925    0.68042    0.85450    1.000
    Si3960   Si       0.54350    0.66894    0.75878    1.000
    Si3961   Si       0.49870    0.69962    0.87022    1.000
    N3962    N        0.51247    0.70805    0.82966    1.000
    Si3963   Si       0.66000    0.68740    0.81670    1.000
    N3964    N        0.62691    0.69538    0.84408    1.000
    Si3965   Si       0.72739    0.66515    0.85032    1.000
    N3966    N        0.63008    0.67366    0.78814    1.000
    Si3967   Si       0.64763    0.65757    0.75226    1.000
    Si3968   Si       0.72584    0.71000    0.78772    1.000
    Si3969   Si       0.60423    0.66979    0.87911    1.000
    N3970    N        0.50430    0.65867    0.88444    1.000
    N3971    N        0.58192    0.68950    0.97768    1.000
    Si3972   Si       0.54076    0.67871    0.97350    1.000
    N3973    N        0.52399    0.71171    0.95155    1.000
    Si3974   Si       0.61555    0.66779    0.99351    1.000
    N3975    N        0.73607    0.69361    0.88300    1.000
    N3976    N        0.62236    0.70175    0.90639    1.000
    N3977    N        0.65091    0.67238    0.96689    1.000
    Si3978   Si       0.71900    0.68716    0.92265    1.000
    Si3979   Si       0.64817    0.70482    0.93917    1.000
    Si3980   Si       0.53247    0.73922    0.10503    1.000
    N3981    N        0.51009    0.75020    0.02294    1.000
    N3982    N        0.57972    0.75508    0.01504    1.000
    Si3983   Si       0.54599    0.76951    0.03563    1.000
    N3984    N        0.53827    0.77459    0.07977    1.000
    N3985    N        0.57048    0.73649    0.12216    1.000
    N3986    N        0.71190    0.74163    0.06430    1.000
    N3987    N        0.65294    0.75885    0.02802    1.000
    Si3988   Si       0.66130    0.74996    0.11098    1.000
    Si3989   Si       0.73210    0.74294    0.10422    1.000
    Si3990   Si       0.65360    0.72151    0.00726    1.000
    Si3991   Si       0.72764    0.72083    0.02965    1.000
    N3992    N        0.69748    0.72203    0.99982    1.000
    Si3993   Si       0.68665    0.77292    0.04794    1.000
    Si3994   Si       0.57281    0.72821    0.21279    1.000
    Si3995   Si       0.51739    0.73897    0.17750    1.000
    N3996    N        0.50370    0.73387    0.13719    1.000
    Si3997   Si       0.60253    0.73851    0.14996    1.000
    N3998    N        0.58586    0.75736    0.18468    1.000
    N3999    N        0.54527    0.74924    0.23909    1.000
    Si4000   Si       0.50044    0.75124    0.24653    1.000
    Si4001   Si       0.70688    0.73680    0.17315    1.000
    N4002    N        0.63557    0.76704    0.14074    1.000
    N4003    N        0.67338    0.71656    0.19315    1.000
    N4004    N        0.69780    0.73715    0.13035    1.000
    N4005    N        0.72198    0.71611    0.24171    1.000
    N4006    N        0.53066    0.75044    0.34366    1.000
    N4007    N        0.59790    0.72477    0.29445    1.000
    Si4008   Si       0.59432    0.76619    0.30101    1.000
    Si4009   Si       0.50083    0.71826    0.34698    1.000
    N4010    N        0.59689    0.76395    0.34553    1.000
    Si4011   Si       0.56775    0.74004    0.36731    1.000
    N4012    N        0.65438    0.73400    0.32974    1.000
    N4013    N        0.70114    0.75455    0.29306    1.000
    Si4014   Si       0.73493    0.74995    0.26830    1.000
    Si4015   Si       0.68227    0.71652    0.30307    1.000
    N4016    N        0.49915    0.74666    0.44610    1.000
    Si4017   Si       0.52207    0.72066    0.42093    1.000
    N4018    N        0.55388    0.74555    0.40665    1.000
    N4019    N        0.58124    0.76307    0.46700    1.000
    N4020    N        0.63622    0.73065    0.44674    1.000
    N4021    N        0.73013    0.76865    0.38271    1.000
    Si4022   Si       0.62287    0.75804    0.47984    1.000
    N4023    N        0.69748    0.74325    0.46152    1.000
    Si4024   Si       0.67342    0.73929    0.42530    1.000
    Si4025   Si       0.73879    0.72889    0.39581    1.000
    Si4026   Si       0.55989    0.73952    0.56523    1.000
    N4027    N        0.59155    0.75493    0.59007    1.000
    N4028    N        0.53883    0.72000    0.60004    1.000
    Si4029   Si       0.49739    0.71488    0.61150    1.000
    N4030    N        0.54517    0.77467    0.54147    1.000
    N4031    N        0.69538    0.73376    0.52840    1.000
    N4032    N        0.62833    0.73632    0.51712    1.000
    Si4033   Si       0.65670    0.73986    0.55084    1.000
    N4034    N        0.71123    0.75622    0.59977    1.000
    Si4035   Si       0.57417    0.73001    0.62352    1.000
    N4036    N        0.55804    0.75649    0.73341    1.000
    N4037    N        0.55613    0.75268    0.65767    1.000
    Si4038   Si       0.57675    0.76540    0.69405    1.000
    Si4039   Si       0.51821    0.77626    0.65568    1.000
    N4040    N        0.61560    0.75279    0.69362    1.000
    N4041    N        0.67584    0.76210    0.71156    1.000
    Si4042   Si       0.64837    0.71701    0.62615    1.000
    N4043    N        0.65504    0.75849    0.63874    1.000
    Si4044   Si       0.64142    0.73569    0.72699    1.000
    Si4045   Si       0.57995    0.73404    0.76284    1.000
    Si4046   Si       0.55234    0.72299    0.84418    1.000
    N4047    N        0.58468    0.75112    0.86010    1.000
    N4048    N        0.57228    0.72010    0.80291    1.000
    N4049    N        0.62018    0.75312    0.76131    1.000
    Si4050   Si       0.67993    0.75617    0.82710    1.000
    N4051    N        0.65651    0.75463    0.86244    1.000
    N4052    N        0.68703    0.71853    0.80606    1.000
    N4053    N        0.71849    0.77784    0.82862    1.000
    N4054    N        0.56910    0.76048    0.94558    1.000
    Si4055   Si       0.52935    0.74688    0.92809    1.000
    Si4056   Si       0.58726    0.73432    0.97717    1.000
    N4057    N        0.52659    0.73364    0.88576    1.000
    N4058    N        0.49181    0.77000    0.92778    1.000
    N4059    N        0.63211    0.73427    0.96943    1.000
    Si4060   Si       0.62273    0.73026    0.87207    1.000
    Si4061   Si       0.70660    0.74246    0.96191    1.000
    N4062    N        0.69008    0.71715    0.93070    1.000
    N4063    N        0.54263    0.81278    0.03070    1.000
    Si4064   Si       0.51943    0.81441    0.07763    1.000
    N4065    N        0.61151    0.81251    0.04831    1.000
    N4066    N        0.50286    0.82119    0.11772    1.000
    Si4067   Si       0.61616    0.77996    0.02013    1.000
    N4068    N        0.71548    0.80023    0.03258    1.000
    Si4069   Si       0.64513    0.82130    0.07537    1.000
    N4070    N        0.66836    0.78652    0.08649    1.000
    N4071    N        0.62601    0.83485    0.10988    1.000
    Si4072   Si       0.49320    0.80407    0.15838    1.000
    N4073    N        0.52532    0.78261    0.17930    1.000
    N4074    N        0.56816    0.81696    0.22517    1.000
    Si4075   Si       0.56799    0.79699    0.18638    1.000
    N4076    N        0.59528    0.82477    0.16576    1.000
    N4077    N        0.64732    0.82946    0.22736    1.000
    Si4078   Si       0.63316    0.81010    0.14549    1.000
    Si4079   Si       0.73868    0.80513    0.21439    1.000
    N4080    N        0.66954    0.82728    0.16378    1.000
    N4081    N        0.71650    0.77316    0.19589    1.000
    Si4082   Si       0.53253    0.79332    0.33289    1.000
    N4083    N        0.56017    0.79155    0.29655    1.000
    Si4084   Si       0.54718    0.79181    0.25534    1.000
    N4085    N        0.50360    0.79382    0.25938    1.000
    N4086    N        0.49701    0.81839    0.32561    1.000
    N4087    N        0.55472    0.81576    0.36255    1.000
    Si4088   Si       0.59490    0.80262    0.36605    1.000
    N4089    N        0.62962    0.78521    0.28279    1.000
    N4090    N        0.67671    0.79911    0.34067    1.000
    Si4091   Si       0.62880    0.82796    0.26568    1.000
    Si4092   Si       0.66466    0.77229    0.30928    1.000
    N4093    N        0.60068    0.79821    0.40856    1.000
    N4094    N        0.53764    0.81197    0.43368    1.000
    Si4095   Si       0.56546    0.77822    0.43238    1.000
    Si4096   Si       0.53075    0.82770    0.47308    1.000
    Si4097   Si       0.72149    0.77608    0.47458    1.000
    N4098    N        0.70870    0.82971    0.39870    1.000
    Si4099   Si       0.67189    0.82435    0.48773    1.000
    N4100    N        0.66641    0.77628    0.40671    1.000
    Si4101   Si       0.69402    0.79320    0.37852    1.000
    Si4102   Si       0.63928    0.80293    0.42772    1.000
    N4103    N        0.64449    0.79458    0.47064    1.000
    Si4104   Si       0.56207    0.81468    0.53882    1.000
    N4105    N        0.60047    0.82019    0.55563    1.000
    Si4106   Si       0.50698    0.81968    0.58606    1.000
    N4107    N        0.50007    0.80468    0.49890    1.000
    Si4108   Si       0.50445    0.77369    0.52954    1.000
    Si4109   Si       0.61379    0.79262    0.58638    1.000
    Si4110   Si       0.73003    0.79981    0.58876    1.000
    N4111    N        0.69413    0.81902    0.60826    1.000
    Si4112   Si       0.67478    0.78086    0.60890    1.000
    N4113    N        0.70864    0.80698    0.49990    1.000
    N4114    N        0.65171    0.77703    0.57269    1.000
    N4115    N        0.61816    0.81592    0.62126    1.000
    N4116    N        0.50469    0.78558    0.69677    1.000
    N4117    N        0.51358    0.80954    0.62898    1.000
    N4118    N        0.56647    0.80851    0.69815    1.000
    Si4119   Si       0.53584    0.79379    0.72490    1.000
    Si4120   Si       0.65022    0.77418    0.67900    1.000
    N4121    N        0.64056    0.81636    0.68471    1.000
    Si4122   Si       0.70972    0.78758    0.72354    1.000
    N4123    N        0.70670    0.82724    0.70554    1.000
    N4124    N        0.55530    0.80442    0.82583    1.000
    Si4125   Si       0.58160    0.79307    0.85847    1.000
    N4126    N        0.52897    0.81850    0.75879    1.000
    N4127    N        0.59991    0.82277    0.78171    1.000
    Si4128   Si       0.55633    0.82957    0.79200    1.000
    N4129    N        0.49073    0.79789    0.86521    1.000
    N4130    N        0.61689    0.81676    0.87124    1.000
    N4131    N        0.65924    0.78816    0.80678    1.000
    N4132    N        0.71802    0.79492    0.76468    1.000
    Si4133   Si       0.68920    0.81549    0.78873    1.000
    Si4134   Si       0.63096    0.79380    0.77391    1.000
    Si4135   Si       0.72807    0.79756    0.86598    1.000
    N4136    N        0.66101    0.81711    0.75344    1.000
    N4137    N        0.55828    0.80505    0.89358    1.000
    Si4138   Si       0.58669    0.79547    0.92516    1.000
    Si4139   Si       0.51944    0.82412    0.88422    1.000
    N4140    N        0.62814    0.77878    0.91684    1.000
    Si4141   Si       0.64492    0.77459    0.95642    1.000
    Si4142   Si       0.65119    0.79158    0.88270    1.000
    N4143    N        0.68648    0.77823    0.95395    1.000
    N4144    N        0.69095    0.80704    0.88697    1.000
    N4145    N        0.62319    0.79994    0.98315    1.000
    Si4146   Si       0.70189    0.81075    0.92954    1.000
    Si4147   Si       0.59298    0.86065    0.09783    1.000
    N4148    N        0.52833    0.87561    0.03611    1.000
    N4149    N        0.60127    0.87640    0.05836    1.000
    N4150    N        0.55484    0.84319    0.08834    1.000
    Si4151   Si       0.57564    0.84100    0.04332    1.000
    Si4152   Si       0.51446    0.84014    0.00739    1.000
    Si4153   Si       0.55159    0.88726    0.00125    1.000
    Si4154   Si       0.52773    0.85587    0.12117    1.000
    N4155    N        0.57891    0.85430    0.99980    1.000
    N4156    N        0.71248    0.86881    0.00595    1.000
    Si4157   Si       0.64065    0.88119    0.03875    1.000
    Si4158   Si       0.70704    0.84323    0.04057    1.000
    N4159    N        0.66801    0.85195    0.05628    1.000
    N4160    N        0.73265    0.84744    0.07677    1.000
    N4161    N        0.64268    0.87111    0.99507    1.000
    Si4162   Si       0.57164    0.86017    0.23169    1.000
    Si4163   Si       0.51564    0.86912    0.19391    1.000
    N4164    N        0.52932    0.87047    0.23443    1.000
    Si4165   Si       0.58560    0.86763    0.16311    1.000
    N4166    N        0.54252    0.85884    0.16240    1.000
    N4167    N        0.59022    0.88698    0.20169    1.000
    N4168    N        0.58957    0.89310    0.12570    1.000
    Si4169   Si       0.67692    0.84543    0.19967    1.000
    N4170    N        0.71719    0.84058    0.21659    1.000
    N4171    N        0.68042    0.88891    0.20255    1.000
    Si4172   Si       0.71316    0.88485    0.23036    1.000
    N4173    N        0.60031    0.86210    0.26249    1.000
    Si4174   Si       0.50095    0.87946    0.26493    1.000
    N4175    N        0.52295    0.88209    0.30506    1.000
    Si4176   Si       0.50223    0.86124    0.33936    1.000
    N4177    N        0.68546    0.87572    0.33936    1.000
    N4178    N        0.65892    0.84340    0.29320    1.000
    Si4179   Si       0.66305    0.83906    0.33692    1.000
    Si4180   Si       0.67465    0.88415    0.29724    1.000
    N4181    N        0.62097    0.83604    0.35219    1.000
    N4182    N        0.57784    0.86922    0.40477    1.000
    N4183    N        0.50642    0.85455    0.38485    1.000
    N4184    N        0.51870    0.86956    0.47111    1.000
    Si4185   Si       0.54559    0.84010    0.39866    1.000
    Si4186   Si       0.61751    0.86213    0.38725    1.000
    N4187    N        0.64500    0.84518    0.41872    1.000
    N4188    N        0.68662    0.86071    0.46451    1.000
    Si4189   Si       0.68574    0.85948    0.42087    1.000
    Si4190   Si       0.55761    0.87942    0.56063    1.000
    N4191    N        0.53592    0.84113    0.56189    1.000
    N4192    N        0.59367    0.89022    0.53470    1.000
    N4193    N        0.56562    0.82969    0.49916    1.000
    Si4194   Si       0.62218    0.85698    0.54454    1.000
    Si4195   Si       0.67863    0.85862    0.60364    1.000
    N4196    N        0.64413    0.86973    0.57968    1.000
    N4197    N        0.65126    0.85251    0.51375    1.000
    Si4198   Si       0.72891    0.88393    0.55745    1.000
    N4199    N        0.70955    0.88747    0.59722    1.000
    N4200    N        0.73117    0.84037    0.55850    1.000
    Si4201   Si       0.67341    0.88600    0.49760    1.000
    N4202    N        0.55042    0.87589    0.72193    1.000
    Si4203   Si       0.55675    0.84911    0.68617    1.000
    N4204    N        0.58902    0.86509    0.66326    1.000
    N4205    N        0.51549    0.86020    0.67226    1.000
    Si4206   Si       0.50958    0.88369    0.70868    1.000
    N4207    N        0.65802    0.87024    0.64173    1.000
    Si4208   Si       0.73538    0.85859    0.69702    1.000
    N4209    N        0.66170    0.87639    0.70885    1.000
    Si4210   Si       0.62505    0.84293    0.65348    1.000
    Si4211   Si       0.66503    0.83574    0.71651    1.000
    N4212    N        0.56520    0.86954    0.80717    1.000
    N4213    N        0.52114    0.85978    0.85773    1.000
    Si4214   Si       0.60576    0.86683    0.79148    1.000
    Si4215   Si       0.49541    0.87360    0.82637    1.000
    Si4216   Si       0.55371    0.88581    0.84782    1.000
    Si4217   Si       0.72655    0.86615    0.85237    1.000
    N4218    N        0.70007    0.84848    0.81920    1.000
    N4219    N        0.63465    0.88233    0.81877    1.000
    Si4220   Si       0.67556    0.88364    0.80746    1.000
    N4221    N        0.58482    0.88044    0.87946    1.000
    Si4222   Si       0.49992    0.87563    0.93960    1.000
    N4223    N        0.49784    0.83860    0.91962    1.000
    N4224    N        0.52225    0.86840    0.97530    1.000
    N4225    N        0.60061    0.83697    0.93482    1.000
    Si4226   Si       0.61273    0.85281    0.89501    1.000
    Si4227   Si       0.61444    0.84206    0.97585    1.000
    Si4228   Si       0.68425    0.87703    0.91661    1.000
    N4229    N        0.72180    0.87584    0.89495    1.000
    Si4230   Si       0.68084    0.87378    0.97756    1.000
    N4231    N        0.64854    0.87665    0.89196    1.000
    N4232    N        0.67950    0.84335    0.94524    1.000
    N4233    N        0.55217    0.93157    0.07206    1.000
    Si4234   Si       0.51784    0.90511    0.06869    1.000
    Si4235   Si       0.57545    0.93200    0.11216    1.000
    N4236    N        0.56593    0.92673    0.99914    1.000
    N4237    N        0.51054    0.89368    0.11105    1.000
    N4238    N        0.65268    0.92281    0.04435    1.000
    N4239    N        0.72381    0.91103    0.08728    1.000
    Si4240   Si       0.69068    0.92928    0.06528    1.000
    N4241    N        0.66677    0.94314    0.09832    1.000
    Si4242   Si       0.60703    0.92670    0.20087    1.000
    Si4243   Si       0.50780    0.92471    0.14299    1.000
    N4244    N        0.49841    0.91049    0.18440    1.000
    N4245    N        0.54785    0.94127    0.14353    1.000
    Si4246   Si       0.72949    0.93207    0.12520    1.000
    Si4247   Si       0.67372    0.92797    0.18564    1.000
    N4248    N        0.62935    0.92249    0.23874    1.000
    N4249    N        0.63485    0.93551    0.16771    1.000
    N4250    N        0.70058    0.93948    0.15570    1.000
    N4251    N        0.57339    0.93046    0.27926    1.000
    Si4252   Si       0.54290    0.92056    0.30974    1.000
    N4253    N        0.55748    0.92534    0.35055    1.000
    Si4254   Si       0.59995    0.92836    0.36330    1.000
    Si4255   Si       0.60764    0.90400    0.27225    1.000
    N4256    N        0.50682    0.94854    0.31418    1.000
    N4257    N        0.64188    0.91233    0.29933    1.000
    Si4258   Si       0.66773    0.93608    0.25387    1.000
    N4259    N        0.68674    0.94153    0.34250    1.000
    N4260    N        0.69729    0.90198    0.26588    1.000
    Si4261   Si       0.67500    0.90777    0.36650    1.000
    Si4262   Si       0.65235    0.95077    0.31627    1.000
    Si4263   Si       0.50434    0.90156    0.44519    1.000
    N4264    N        0.58986    0.90427    0.46543    1.000
    Si4265   Si       0.57430    0.90690    0.42769    1.000
    N4266    N        0.53253    0.91503    0.41789    1.000
    N4267    N        0.59414    0.93928    0.40524    1.000
    Si4268   Si       0.52725    0.93458    0.38144    1.000
    N4269    N        0.49917    0.92890    0.47823    1.000
    N4270    N        0.63310    0.90081    0.37176    1.000
    N4271    N        0.70664    0.93831    0.46377    1.000
    Si4272   Si       0.71875    0.92982    0.42311    1.000
    N4273    N        0.69290    0.90054    0.40433    1.000
    N4274    N        0.64762    0.91994    0.49480    1.000
    Si4275   Si       0.73172    0.92651    0.50042    1.000
    N4276    N        0.52828    0.90975    0.54258    1.000
    Si4277   Si       0.60210    0.91873    0.50347    1.000
    Si4278   Si       0.49535    0.93656    0.55829    1.000
    N4279    N        0.49360    0.93243    0.60261    1.000
    Si4280   Si       0.50945    0.89520    0.50501    1.000
    N4281    N        0.57750    0.89033    0.59756    1.000
    Si4282   Si       0.61946    0.90476    0.59245    1.000
    N4283    N        0.63656    0.93641    0.57032    1.000
    N4284    N        0.70857    0.89737    0.52149    1.000
    Si4285   Si       0.57417    0.90733    0.74103    1.000
    N4286    N        0.58315    0.93557    0.70883    1.000
    N4287    N        0.50985    0.92687    0.71088    1.000
    Si4288   Si       0.58141    0.90001    0.63935    1.000
    N4289    N        0.54892    0.92690    0.65046    1.000
    Si4290   Si       0.54517    0.94125    0.69035    1.000
    N4291    N        0.71911    0.93756    0.72541    1.000
    Si4292   Si       0.67634    0.89452    0.67334    1.000
    N4293    N        0.72007    0.89187    0.67082    1.000
    Si4294   Si       0.73478    0.93384    0.68279    1.000
    Si4295   Si       0.65125    0.90586    0.73835    1.000
    Si4296   Si       0.73747    0.89452    0.62810    1.000
    N4297    N        0.66619    0.93428    0.68389    1.000
    N4298    N        0.61740    0.92472    0.63260    1.000
    N4299    N        0.50702    0.91140    0.80812    1.000
    N4300    N        0.55964    0.93657    0.76907    1.000
    N4301    N        0.54643    0.92520    0.86078    1.000
    N4302    N        0.61192    0.89137    0.75512    1.000
    Si4303   Si       0.52461    0.94788    0.79165    1.000
    N4304    N        0.61744    0.93741    0.86507    1.000
    N4305    N        0.68298    0.91248    0.84180    1.000
    Si4306   Si       0.72483    0.90484    0.75526    1.000
    Si4307   Si       0.64308    0.90524    0.85871    1.000
    N4308    N        0.68530    0.89377    0.76713    1.000
    N4309    N        0.56716    0.93451    0.92435    1.000
    N4310    N        0.49638    0.91756    0.92433    1.000
    Si4311   Si       0.58180    0.92257    0.88659    1.000
    Si4312   Si       0.69928    0.94508    0.95803    1.000
    N4313    N        0.73320    0.93266    0.98183    1.000
    N4314    N        0.68332    0.90608    0.94837    1.000
    N4315    N        0.52580    0.97462    0.02744    1.000
    N4316    N        0.59725    0.97472    0.03906    1.000
    N4317    N        0.60702    0.96215    0.10605    1.000
    Si4318   Si       0.58935    0.00537    0.10976    1.000
    Si4319   Si       0.56247    0.95162    0.03673    1.000
    Si4320   Si       0.63332    0.95751    0.06390    1.000
    Si4321   Si       0.68309    0.98786    0.01814    1.000
    N4322    N        0.65863    0.99544    0.05502    1.000
    N4323    N        0.70929    0.95686    0.03650    1.000
    N4324    N        0.73841    0.97412    0.11667    1.000
    N4325    N        0.57610    0.95911    0.20703    1.000
    N4326    N        0.51663    0.98645    0.18610    1.000
    Si4327   Si       0.55431    0.97211    0.17189    1.000
    N4328    N        0.57632    0.00440    0.15209    1.000
    N4329    N        0.66362    0.99183    0.14517    1.000
    N4330    N        0.68720    0.95506    0.21846    1.000
    Si4331   Si       0.70493    0.98207    0.14715    1.000
    Si4332   Si       0.72084    0.98265    0.21812    1.000
    Si4333   Si       0.64243    0.95596    0.13101    1.000
    N4334    N        0.71855    0.00472    0.18021    1.000
    Si4335   Si       0.50058    0.98494    0.28945    1.000
    N4336    N        0.52972    0.98528    0.25758    1.000
    N4337    N        0.59379    0.00271    0.26504    1.000
    Si4338   Si       0.56896    0.96565    0.25230    1.000
    Si4339   Si       0.61368    0.00173    0.34849    1.000
    N4340    N        0.61791    0.96000    0.34105    1.000
    N4341    N        0.65919    0.97045    0.27962    1.000
    Si4342   Si       0.72644    0.95954    0.35398    1.000
    N4343    N        0.72172    0.00215    0.25679    1.000
    Si4344   Si       0.63653    0.00600    0.27527    1.000
    Si4345   Si       0.60983    0.97680    0.42186    1.000
    N4346    N        0.57633    0.99007    0.44731    1.000
    Si4347   Si       0.57972    0.99311    0.49039    1.000
    N4348    N        0.50140    0.98665    0.43388    1.000
    N4349    N        0.61852    0.00878    0.39218    1.000
    Si4350   Si       0.53602    0.00935    0.44485    1.000
    Si4351   Si       0.66693    0.95293    0.47677    1.000
    N4352    N        0.64186    0.97770    0.45096    1.000
    Si4353   Si       0.72598    0.00626    0.41732    1.000
    Si4354   Si       0.72168    0.99466    0.48160    1.000
    N4355    N        0.71763    0.96728    0.39733    1.000
    N4356    N        0.51443    0.97032    0.54135    1.000
    N4357    N        0.55965    0.95803    0.58519    1.000
    Si4358   Si       0.56380    0.99997    0.60255    1.000
    N4359    N        0.57987    0.95601    0.51294    1.000
    Si4360   Si       0.50284    0.00426    0.51672    1.000
    Si4361   Si       0.55163    0.95018    0.54439    1.000
    Si4362   Si       0.53097    0.94971    0.61799    1.000
    N4363    N        0.73666    0.96715    0.51469    1.000
    Si4364   Si       0.66356    0.96646    0.57778    1.000
    N4365    N        0.70678    0.96399    0.57802    1.000
    N4366    N        0.65039    0.00403    0.56122    1.000
    Si4367   Si       0.73431    0.98706    0.55269    1.000
    N4368    N        0.67933    0.99123    0.49906    1.000
    N4369    N        0.53317    0.99185    0.63253    1.000
    N4370    N        0.53183    0.98443    0.69853    1.000
    Si4371   Si       0.49844    0.96887    0.72407    1.000
    N4372    N        0.59314    0.99280    0.74485    1.000
    Si4373   Si       0.61392    0.96442    0.71811    1.000
    Si4374   Si       0.55974    0.01012    0.71929    1.000
    N4375    N        0.66851    0.96808    0.62396    1.000
    Si4376   Si       0.71231    0.96951    0.62249    1.000
    Si4377   Si       0.68537    0.96396    0.71139    1.000
    N4378    N        0.64834    0.95112    0.74090    1.000
    Si4379   Si       0.64032    0.95389    0.65248    1.000
    N4380    N        0.71655    0.97629    0.67718    1.000
    N4381    N        0.69640    0.99357    0.74117    1.000
    N4382    N        0.62483    0.98398    0.67897    1.000
    N4383    N        0.55212    0.97579    0.81894    1.000
    Si4384   Si       0.52766    0.96465    0.85242    1.000
    N4385    N        0.50613    0.97680    0.76563    1.000
    Si4386   Si       0.58004    0.97339    0.78535    1.000
    N4387    N        0.62165    0.96778    0.80302    1.000
    Si4388   Si       0.62999    0.97234    0.84596    1.000
    N4389    N        0.69233    0.97062    0.79941    1.000
    Si4390   Si       0.65598    0.97717    0.77661    1.000
    Si4391   Si       0.72298    0.96717    0.76690    1.000
    N4392    N        0.67079    0.97611    0.86388    1.000
    Si4393   Si       0.69764    0.95376    0.83892    1.000
    N4394    N        0.73952    0.95507    0.85279    1.000
    N4395    N        0.60137    0.97862    0.97345    1.000
    N4396    N        0.53108    0.97131    0.96122    1.000
    N4397    N        0.51971    0.98163    0.89217    1.000
    Si4398   Si       0.52823    0.00141    0.99324    1.000
    Si4399   Si       0.52424    0.94919    0.92179    1.000
    Si4400   Si       0.57150    0.95130    0.96448    1.000
    N4401    N        0.64848    0.00277    0.91967    1.000
    Si4402   Si       0.63985    0.99621    0.96194    1.000
    N4403    N        0.67194    0.97189    0.97855    1.000
    N4404    N        0.71207    0.96174    0.91866    1.000
    Si4405   Si       0.68562    0.99141    0.90075    1.000
    N4406    N        0.77672    0.03556    0.09802    1.000
    N4407    N        0.77842    0.04300    0.02216    1.000
    Si4408   Si       0.80116    0.05416    0.05826    1.000
    Si4409   Si       0.86066    0.02889    0.07397    1.000
    N4410    N        0.82370    0.01342    0.05695    1.000
    N4411    N        0.85188    0.03450    0.11962    1.000
    N4412    N        0.89021    0.03495    0.04317    1.000
    Si4413   Si       0.90795    0.01781    0.00631    1.000
    N4414    N        0.95719    0.05476    0.11532    1.000
    Si4415   Si       0.95094    0.01135    0.12022    1.000
    N4416    N        0.94364    0.03867    0.99885    1.000
    Si4417   Si       0.98428    0.04136    0.99383    1.000
    N4418    N        0.74598    0.06638    0.15361    1.000
    N4419    N        0.83735    0.05385    0.23670    1.000
    Si4420   Si       0.80661    0.03626    0.13094    1.000
    Si4421   Si       0.87533    0.05084    0.21745    1.000
    N4422    N        0.88807    0.01103    0.20696    1.000
    N4423    N        0.95571    0.03047    0.20141    1.000
    N4424    N        0.82950    0.04958    0.33057    1.000
    Si4425   Si       0.79447    0.05408    0.30368    1.000
    N4426    N        0.76027    0.05871    0.33017    1.000
    Si4427   Si       0.75572    0.02596    0.35798    1.000
    N4428    N        0.78659    0.01973    0.27704    1.000
    Si4429   Si       0.81959    0.01391    0.25119    1.000
    Si4430   Si       0.86384    0.02736    0.31697    1.000
    N4431    N        0.96211    0.03297    0.32895    1.000
    N4432    N        0.89773    0.05090    0.30605    1.000
    Si4433   Si       0.93291    0.06571    0.32580    1.000
    Si4434   Si       0.98740    0.01715    0.29800    1.000
    Si4435   Si       0.95306    0.03079    0.37171    1.000
    N4436    N        0.92593    0.06508    0.36750    1.000
    Si4437   Si       0.77828    0.01898    0.47010    1.000
    Si4438   Si       0.81098    0.01986    0.41081    1.000
    N4439    N        0.83873    0.05088    0.39777    1.000
    N4440    N        0.78596    0.04417    0.43643    1.000
    Si4441   Si       0.84636    0.00976    0.47346    1.000
    N4442    N        0.74565    0.03101    0.49626    1.000
    N4443    N        0.87251    0.04128    0.45913    1.000
    N4444    N        0.93393    0.06479    0.43876    1.000
    N4445    N        0.98629    0.04821    0.39587    1.000
    Si4446   Si       0.97569    0.05829    0.43865    1.000
    N4447    N        0.97794    0.02916    0.46974    1.000
    Si4448   Si       0.91746    0.03653    0.46799    1.000
    Si4449   Si       0.81817    0.03064    0.54064    1.000
    N4450    N        0.78525    0.05869    0.54792    1.000
    N4451    N        0.85444    0.05199    0.54220    1.000
    Si4452   Si       0.74560    0.05339    0.53343    1.000
    N4453    N        0.81217    0.01813    0.49860    1.000
    Si4454   Si       0.97091    0.06440    0.59186    1.000
    Si4455   Si       0.93336    0.01564    0.54122    1.000
    Si4456   Si       0.87148    0.02143    0.57797    1.000
    N4457    N        0.95672    0.02377    0.58055    1.000
    N4458    N        0.92448    0.04646    0.51139    1.000
    N4459    N        0.87753    0.05979    0.60125    1.000
    N4460    N        0.81329    0.01545    0.72115    1.000
    Si4461   Si       0.78033    0.04539    0.72197    1.000
    N4462    N        0.83981    0.03439    0.66183    1.000
    N4463    N        0.74563    0.03993    0.69718    1.000
    Si4464   Si       0.87707    0.03879    0.63848    1.000
    N4465    N        0.93757    0.02696    0.72508    1.000
    Si4466   Si       0.95015    0.06812    0.73147    1.000
    Si4467   Si       0.93227    0.01255    0.68243    1.000
    N4468    N        0.90960    0.04449    0.66525    1.000
    N4469    N        0.77986    0.03814    0.82829    1.000
    Si4470   Si       0.75770    0.03181    0.78914    1.000
    Si4471   Si       0.82074    0.02119    0.82465    1.000
    N4472    N        0.85534    0.04645    0.82520    1.000
    N4473    N        0.77990    0.05869    0.76482    1.000
    Si4474   Si       0.84568    0.01610    0.75126    1.000
    Si4475   Si       0.76183    0.06514    0.85734    1.000
    N4476    N        0.87142    0.04993    0.75948    1.000
    Si4477   Si       0.88932    0.04282    0.79783    1.000
    N4478    N        0.96683    0.04033    0.85960    1.000
    Si4479   Si       0.94735    0.02105    0.82148    1.000
    N4480    N        0.92674    0.05819    0.81358    1.000
    N4481    N        0.84293    0.03318    0.90774    1.000
    Si4482   Si       0.75158    0.02809    0.91887    1.000
    N4483    N        0.77604    0.05860    0.89948    1.000
    N4484    N        0.73932    0.04722    0.95752    1.000
    Si4485   Si       0.74498    0.02865    0.99739    1.000
    Si4486   Si       0.98426    0.06499    0.92457    1.000
    Si4487   Si       0.86559    0.06512    0.96828    1.000
    Si4488   Si       0.88675    0.03965    0.90911    1.000
    N4489    N        0.87502    0.02153    0.97475    1.000
    N4490    N        0.97269    0.02533    0.92326    1.000
    N4491    N        0.89991    0.06346    0.87445    1.000
    Si4492   Si       0.82539    0.11236    0.07632    1.000
    N4493    N        0.78797    0.09502    0.06140    1.000
    Si4494   Si       0.75277    0.11704    0.05992    1.000
    N4495    N        0.84613    0.07455    0.06393    1.000
    N4496    N        0.91712    0.09418    0.06470    1.000
    N4497    N        0.97203    0.10490    0.02322    1.000
    Si4498   Si       0.88477    0.07707    0.04343    1.000
    Si4499   Si       0.92939    0.08702    0.10748    1.000
    N4500    N        0.87874    0.09148    0.00119    1.000
    Si4501   Si       0.94018    0.12492    0.04242    1.000
    Si4502   Si       0.85834    0.07194    0.14463    1.000
    Si4503   Si       0.81550    0.09231    0.24060    1.000
    Si4504   Si       0.78082    0.08975    0.17193    1.000
    N4505    N        0.77932    0.08899    0.21498    1.000
    N4506    N        0.81401    0.07471    0.14820    1.000
    Si4507   Si       0.73880    0.09403    0.23158    1.000
    N4508    N        0.88814    0.09155    0.12208    1.000
    Si4509   Si       0.94737    0.06925    0.21689    1.000
    N4510    N        0.97935    0.08252    0.24576    1.000
    Si4511   Si       0.90106    0.11081    0.19215    1.000
    N4512    N        0.94249    0.10004    0.18674    1.000
    N4513    N        0.90948    0.07009    0.23894    1.000
    N4514    N        0.87328    0.07861    0.18431    1.000
    N4515    N        0.80829    0.09132    0.28470    1.000
    N4516    N        0.84211    0.11194    0.34622    1.000
    Si4517   Si       0.83598    0.11571    0.30574    1.000
    Si4518   Si       0.82579    0.07767    0.36563    1.000
    N4519    N        0.87312    0.11191    0.28099    1.000
    Si4520   Si       0.90500    0.08420    0.27965    1.000
    N4521    N        0.94107    0.09933    0.30046    1.000
    Si4522   Si       0.97291    0.11488    0.27630    1.000
    Si4523   Si       0.86064    0.07155    0.43031    1.000
    N4524    N        0.83052    0.09596    0.45062    1.000
    N4525    N        0.75952    0.11054    0.45288    1.000
    Si4526   Si       0.78945    0.08805    0.43121    1.000
    N4527    N        0.79797    0.10221    0.39033    1.000
    Si4528   Si       0.83039    0.12501    0.48375    1.000
    Si4529   Si       0.75476    0.11736    0.49512    1.000
    Si4530   Si       0.92448    0.09037    0.40395    1.000
    N4531    N        0.88204    0.10078    0.40535    1.000
    N4532    N        0.94901    0.12448    0.40351    1.000
    Si4533   Si       0.97954    0.12143    0.48055    1.000
    N4534    N        0.83135    0.10619    0.56907    1.000
    Si4535   Si       0.79392    0.10226    0.55100    1.000
    N4536    N        0.79655    0.11546    0.50910    1.000
    Si4537   Si       0.84072    0.12214    0.60879    1.000
    N4538    N        0.76217    0.12893    0.56678    1.000
    Si4539   Si       0.86447    0.09381    0.54145    1.000
    Si4540   Si       0.90334    0.09532    0.59754    1.000
    N4541    N        0.90692    0.09710    0.55463    1.000
    Si4542   Si       0.93820    0.08368    0.52669    1.000
    N4543    N        0.97411    0.08123    0.55065    1.000
    N4544    N        0.94189    0.08204    0.61685    1.000
    N4545    N        0.86866    0.11679    0.50469    1.000
    N4546    N        0.94125    0.11442    0.49827    1.000
    Si4547   Si       0.82979    0.07368    0.67899    1.000
    N4548    N        0.79426    0.07993    0.70008    1.000
    N4549    N        0.84026    0.10166    0.64710    1.000
    N4550    N        0.75999    0.11382    0.64966    1.000
    Si4551   Si       0.76981    0.11644    0.69656    1.000
    N4552    N        0.86323    0.08806    0.70206    1.000
    N4553    N        0.96402    0.08591    0.69511    1.000
    Si4554   Si       0.87088    0.11994    0.67446    1.000
    N4555    N        0.91140    0.11723    0.66198    1.000
    N4556    N        0.91953    0.09856    0.74240    1.000
    Si4557   Si       0.97833    0.12727    0.69383    1.000
    Si4558   Si       0.87827    0.08837    0.74133    1.000
    Si4559   Si       0.93493    0.08133    0.66044    1.000
    Si4560   Si       0.78387    0.10208    0.77516    1.000
    N4561    N        0.76874    0.10806    0.85251    1.000
    N4562    N        0.81096    0.11373    0.80673    1.000
    Si4563   Si       0.81028    0.11778    0.85077    1.000
    N4564    N        0.85865    0.12244    0.75972    1.000
    Si4565   Si       0.86503    0.07714    0.85306    1.000
    N4566    N        0.73932    0.11439    0.79247    1.000
    N4567    N        0.87254    0.11467    0.83497    1.000
    N4568    N        0.94156    0.11446    0.84262    1.000
    Si4569   Si       0.93930    0.07604    0.85985    1.000
    N4570    N        0.98448    0.07262    0.75979    1.000
    N4571    N        0.83077    0.09155    0.87822    1.000
    N4572    N        0.82852    0.08150    0.95208    1.000
    Si4573   Si       0.83002    0.12484    0.95979    1.000
    Si4574   Si       0.81827    0.06781    0.91237    1.000
    N4575    N        0.95353    0.08558    0.90264    1.000
    N4576    N        0.89270    0.07437    0.93596    1.000
    N4577    N        0.93386    0.11783    0.96090    1.000
    Si4578   Si       0.97195    0.10859    0.98033    1.000
    Si4579   Si       0.91972    0.10525    0.92066    1.000
    Si4580   Si       0.80040    0.16048    0.02361    1.000
    N4581    N        0.82979    0.14912    0.05262    1.000
    N4582    N        0.75906    0.15670    0.04217    1.000
    Si4583   Si       0.84903    0.17114    0.08195    1.000
    N4584    N        0.83820    0.13812    0.11245    1.000
    N4585    N        0.89253    0.16498    0.09371    1.000
    N4586    N        0.95973    0.15806    0.06044    1.000
    Si4587   Si       0.98224    0.13865    0.09471    1.000
    N4588    N        0.91253    0.14800    0.01869    1.000
    Si4589   Si       0.93022    0.18172    0.08146    1.000
    Si4590   Si       0.98528    0.16771    0.01721    1.000
    N4591    N        0.94834    0.12531    0.12209    1.000
    N4592    N        0.83253    0.17035    0.17566    1.000
    Si4593   Si       0.80769    0.15592    0.14247    1.000
    Si4594   Si       0.82128    0.17297    0.21780    1.000
    N4595    N        0.77440    0.13000    0.15419    1.000
    N4596    N        0.83265    0.13103    0.23111    1.000
    Si4597   Si       0.88115    0.13509    0.12332    1.000
    N4598    N        0.96696    0.16912    0.17969    1.000
    Si4599   Si       0.87783    0.17369    0.19108    1.000
    N4600    N        0.89139    0.14298    0.16316    1.000
    N4601    N        0.89993    0.14477    0.22496    1.000
    Si4602   Si       0.96235    0.12955    0.16255    1.000
    N4603    N        0.82919    0.15656    0.29381    1.000
    N4604    N        0.74212    0.17513    0.28792    1.000
    N4605    N        0.80040    0.18028    0.35614    1.000
    Si4606   Si       0.86305    0.14973    0.25723    1.000
    N4607    N        0.89276    0.17351    0.28069    1.000
    N4608    N        0.97717    0.15989    0.35140    1.000
    N4609    N        0.89737    0.15119    0.35199    1.000
    N4610    N        0.96096    0.15440    0.26237    1.000
    Si4611   Si       0.93505    0.17267    0.36223    1.000
    Si4612   Si       0.92223    0.17290    0.24974    1.000
    Si4613   Si       0.89139    0.18268    0.32130    1.000
    N4614    N        0.75697    0.15331    0.40087    1.000
    Si4615   Si       0.79900    0.14828    0.38599    1.000
    N4616    N        0.82912    0.16420    0.46654    1.000
    N4617    N        0.84296    0.15579    0.40125    1.000
    Si4618   Si       0.86334    0.16760    0.43747    1.000
    N4619    N        0.90163    0.15616    0.45605    1.000
    Si4620   Si       0.98735    0.13579    0.38610    1.000
    N4621    N        0.97192    0.15680    0.45683    1.000
    Si4622   Si       0.93655    0.15561    0.43075    1.000
    Si4623   Si       0.86663    0.13145    0.37421    1.000
    Si4624   Si       0.76199    0.16888    0.54908    1.000
    N4625    N        0.81151    0.15521    0.61499    1.000
    N4626    N        0.80318    0.18790    0.54983    1.000
    Si4627   Si       0.97651    0.17394    0.58364    1.000
    N4628    N        0.93975    0.15436    0.59343    1.000
    Si4629   Si       0.90101    0.16791    0.57757    1.000
    N4630    N        0.91230    0.17056    0.53058    1.000
    N4631    N        0.88168    0.13258    0.60401    1.000
    Si4632   Si       0.90572    0.14133    0.49816    1.000
    N4633    N        0.79845    0.14989    0.68279    1.000
    Si4634   Si       0.78092    0.15029    0.64424    1.000
    N4635    N        0.74770    0.18118    0.64460    1.000
    Si4636   Si       0.85913    0.16068    0.73746    1.000
    Si4637   Si       0.82094    0.18493    0.68977    1.000
    N4638    N        0.77371    0.12751    0.74244    1.000
    N4639    N        0.95302    0.15718    0.71686    1.000
    N4640    N        0.97649    0.13501    0.65040    1.000
    Si4641   Si       0.93501    0.14772    0.63662    1.000
    N4642    N        0.86771    0.15815    0.69306    1.000
    N4643    N        0.91557    0.18733    0.64762    1.000
    Si4644   Si       0.93076    0.14072    0.74773    1.000
    N4645    N        0.81454    0.15782    0.85996    1.000
    N4646    N        0.84675    0.17223    0.80253    1.000
    N4647    N        0.77001    0.17468    0.81425    1.000
    Si4648   Si       0.75034    0.13880    0.82943    1.000
    Si4649   Si       0.85161    0.12914    0.80201    1.000
    Si4650   Si       0.81240    0.18535    0.82556    1.000
    Si4651   Si       0.95240    0.14721    0.81739    1.000
    N4652    N        0.91362    0.16814    0.82487    1.000
    N4653    N        0.90113    0.17189    0.75622    1.000
    Si4654   Si       0.90401    0.13792    0.85484    1.000
    N4655    N        0.96336    0.13678    0.77821    1.000
    N4656    N        0.98272    0.17344    0.82932    1.000
    N4657    N        0.76338    0.18442    0.96564    1.000
    N4658    N        0.74547    0.14991    0.91651    1.000
    N4659    N        0.79972    0.13479    0.98931    1.000
    Si4660   Si       0.76906    0.14028    0.95638    1.000
    N4661    N        0.80825    0.14725    0.92982    1.000
    Si4662   Si       0.81411    0.17596    0.89911    1.000
    Si4663   Si       0.89863    0.12591    0.98320    1.000
    N4664    N        0.98116    0.17668    0.92101    1.000
    N4665    N        0.86891    0.14500    0.95892    1.000
    N4666    N        0.91280    0.14180    0.89783    1.000
    Si4667   Si       0.93808    0.17706    0.90988    1.000
    N4668    N        0.84132    0.21601    0.07601    1.000
    N4669    N        0.80345    0.20216    0.01592    1.000
    Si4670   Si       0.75434    0.20225    0.10702    1.000
    Si4671   Si       0.82055    0.23267    0.04058    1.000
    N4672    N        0.75203    0.22093    0.06804    1.000
    Si4673   Si       0.82227    0.22717    0.11491    1.000
    N4674    N        0.79484    0.19374    0.12229    1.000
    N4675    N        0.92137    0.22298    0.06402    1.000
    Si4676   Si       0.95904    0.23431    0.08453    1.000
    Si4677   Si       0.87990    0.23296    0.06467    1.000
    N4678    N        0.94955    0.20039    0.11658    1.000
    N4679    N        0.97150    0.20437    0.00003    1.000
    N4680    N        0.85815    0.19274    0.22828    1.000
    N4681    N        0.78520    0.18598    0.23253    1.000
    N4682    N        0.74286    0.23466    0.13487    1.000
    Si4683   Si       0.94200    0.20028    0.15990    1.000
    N4684    N        0.90086    0.20444    0.17198    1.000
    Si4685   Si       0.96099    0.23350    0.22277    1.000
    N4686    N        0.92495    0.21601    0.23785    1.000
    Si4687   Si       0.88308    0.22855    0.23559    1.000
    N4688    N        0.95869    0.23555    0.17786    1.000
    N4689    N        0.80023    0.22074    0.29721    1.000
    Si4690   Si       0.77169    0.20048    0.26956    1.000
    N4691    N        0.85797    0.20751    0.33267    1.000
    Si4692   Si       0.82027    0.19072    0.31974    1.000
    N4693    N        0.74041    0.23416    0.27151    1.000
    N4694    N        0.92722    0.20526    0.33288    1.000
    Si4695   Si       0.79033    0.21622    0.38010    1.000
    N4696    N        0.79694    0.22630    0.48842    1.000
    N4697    N        0.86080    0.21237    0.43966    1.000
    N4698    N        0.79277    0.20485    0.42286    1.000
    Si4699   Si       0.81985    0.20678    0.45721    1.000
    Si4700   Si       0.74720    0.19784    0.42037    1.000
    N4701    N        0.74601    0.21748    0.38043    1.000
    Si4702   Si       0.75701    0.24031    0.47972    1.000
    N4703    N        0.93591    0.18830    0.40243    1.000
    Si4704   Si       0.95080    0.22768    0.41517    1.000
    N4705    N        0.89008    0.24368    0.37642    1.000
    Si4706   Si       0.80560    0.22696    0.53138    1.000
    N4707    N        0.80491    0.21999    0.60974    1.000
    Si4708   Si       0.76615    0.23001    0.59527    1.000
    N4709    N        0.84456    0.24202    0.53741    1.000
    Si4710   Si       0.82347    0.18564    0.58888    1.000
    N4711    N        0.86420    0.19160    0.57672    1.000
    Si4712   Si       0.87697    0.23519    0.57557    1.000
    Si4713   Si       0.93860    0.20618    0.53778    1.000
    N4714    N        0.92177    0.21452    0.57891    1.000
    N4715    N        0.97973    0.19719    0.54831    1.000
    N4716    N        0.93799    0.23725    0.50863    1.000
    N4717    N        0.97715    0.20329    0.61696    1.000
    Si4718   Si       0.93666    0.21646    0.62061    1.000
    N4719    N        0.74920    0.24568    0.63381    1.000
    N4720    N        0.84681    0.20945    0.66458    1.000
    Si4721   Si       0.75297    0.21925    0.66871    1.000
    N4722    N        0.78651    0.21824    0.69393    1.000
    Si4723   Si       0.80823    0.23023    0.73183    1.000
    Si4724   Si       0.83074    0.24025    0.63821    1.000
    N4725    N        0.82910    0.19146    0.73250    1.000
    N4726    N        0.90020    0.22303    0.70867    1.000
    Si4727   Si       0.88649    0.19663    0.67742    1.000
    Si4728   Si       0.98172    0.18656    0.73373    1.000
    Si4729   Si       0.91670    0.21053    0.74640    1.000
    N4730    N        0.95844    0.21839    0.74884    1.000
    N4731    N        0.81874    0.22316    0.84720    1.000
    Si4732   Si       0.75526    0.20125    0.78304    1.000
    N4733    N        0.77831    0.23516    0.76418    1.000
    N4734    N        0.89533    0.22847    0.78408    1.000
    Si4735   Si       0.97390    0.20684    0.85434    1.000
    Si4736   Si       0.93009    0.24496    0.86450    1.000
    Si4737   Si       0.88776    0.18620    0.79600    1.000
    N4738    N        0.96020    0.24240    0.83419    1.000
    N4739    N        0.88823    0.24081    0.85186    1.000
    Si4740   Si       0.85320    0.22640    0.87429    1.000
    Si4741   Si       0.75178    0.19156    0.92413    1.000
    N4742    N        0.85441    0.19309    0.90149    1.000
    Si4743   Si       0.77727    0.21972    0.98746    1.000
    N4744    N        0.85389    0.21901    0.96134    1.000
    N4745    N        0.78340    0.20573    0.89924    1.000
    Si4746   Si       0.79541    0.24374    0.88049    1.000
    Si4747   Si       0.87416    0.18560    0.93961    1.000
    Si4748   Si       0.94525    0.21661    0.96678    1.000
    N4749    N        0.96844    0.23829    0.93557    1.000
    N4750    N        0.91621    0.18963    0.94561    1.000
    N4751    N        0.93921    0.20711    0.88001    1.000
    N4752    N        0.79266    0.26593    0.03482    1.000
    Si4753   Si       0.74947    0.25740    0.04313    1.000
    N4754    N        0.85962    0.24951    0.02635    1.000
    Si4755   Si       0.75899    0.27299    0.11964    1.000
    N4756    N        0.74372    0.28339    0.08114    1.000
    N4757    N        0.79936    0.26321    0.12226    1.000
    Si4758   Si       0.87033    0.29037    0.04185    1.000
    N4759    N        0.97488    0.27215    0.01322    1.000
    N4760    N        0.87731    0.27254    0.08185    1.000
    N4761    N        0.97229    0.26933    0.10742    1.000
    Si4762   Si       0.89977    0.29463    0.11110    1.000
    N4763    N        0.90685    0.29929    0.02140    1.000
    Si4764   Si       0.76979    0.28901    0.18458    1.000
    Si4765   Si       0.83325    0.28156    0.14436    1.000
    N4766    N        0.74757    0.25507    0.19989    1.000
    N4767    N        0.81457    0.29680    0.18035    1.000
    N4768    N        0.85269    0.24350    0.14443    1.000
    Si4769   Si       0.88892    0.24596    0.16666    1.000
    N4770    N        0.98309    0.29851    0.16931    1.000
    N4771    N        0.97670    0.26515    0.24941    1.000
    Si4772   Si       0.95891    0.26873    0.15002    1.000
    N4773    N        0.88538    0.26194    0.20696    1.000
    N4774    N        0.91745    0.26613    0.13822    1.000
    N4775    N        0.79518    0.28303    0.27762    1.000
    N4776    N        0.85067    0.27698    0.32219    1.000
    Si4777   Si       0.75773    0.26716    0.29417    1.000
    Si4778   Si       0.82625    0.25498    0.28979    1.000
    N4779    N        0.74354    0.26806    0.33336    1.000
    Si4780   Si       0.85454    0.24562    0.35249    1.000
    N4781    N        0.86476    0.24538    0.27170    1.000
    N4782    N        0.92177    0.27318    0.31543    1.000
    Si4783   Si       0.88653    0.28018    0.29240    1.000
    Si4784   Si       0.96205    0.28894    0.31439    1.000
    Si4785   Si       0.92523    0.24606    0.35005    1.000
    Si4786   Si       0.99102    0.27087    0.36628    1.000
    N4787    N        0.75854    0.28257    0.49574    1.000
    N4788    N        0.79063    0.28909    0.43162    1.000
    N4789    N        0.85865    0.28049    0.42343    1.000
    Si4790   Si       0.82212    0.28572    0.40388    1.000
    N4791    N        0.81922    0.24880    0.37520    1.000
    N4792    N        0.92240    0.24702    0.44011    1.000
    Si4793   Si       0.92858    0.26641    0.47848    1.000
    N4794    N        0.95516    0.25137    0.38042    1.000
    Si4795   Si       0.88362    0.24384    0.42015    1.000
    N4796    N        0.88629    0.28723    0.48690    1.000
    Si4797   Si       0.75536    0.28318    0.53797    1.000
    N4798    N        0.77602    0.24871    0.55593    1.000
    Si4799   Si       0.86731    0.27747    0.52563    1.000
    N4800    N        0.89606    0.27158    0.55582    1.000
    N4801    N        0.86677    0.24938    0.61417    1.000
    N4802    N        0.95852    0.29804    0.58961    1.000
    N4803    N        0.83541    0.26207    0.72594    1.000
    N4804    N        0.81696    0.27694    0.65598    1.000
    Si4805   Si       0.83628    0.29720    0.69177    1.000
    Si4806   Si       0.97220    0.25931    0.73914    1.000
    Si4807   Si       0.96351    0.27439    0.66338    1.000
    N4808    N        0.93166    0.25497    0.63970    1.000
    Si4809   Si       0.90583    0.26796    0.70699    1.000
    Si4810   Si       0.89348    0.27655    0.63635    1.000
    N4811    N        0.87934    0.28559    0.67814    1.000
    N4812    N        0.94827    0.27135    0.70341    1.000
    N4813    N        0.90200    0.28898    0.74832    1.000
    N4814    N        0.85434    0.28047    0.79607    1.000
    Si4815   Si       0.76243    0.26722    0.78742    1.000
    Si4816   Si       0.85764    0.28816    0.75254    1.000
    N4817    N        0.79259    0.30069    0.79096    1.000
    Si4818   Si       0.98872    0.26626    0.81263    1.000
    Si4819   Si       0.88857    0.25950    0.81296    1.000
    N4820    N        0.96858    0.27981    0.77669    1.000
    N4821    N        0.91454    0.29386    0.81684    1.000
    N4822    N        0.79201    0.24602    0.95819    1.000
    Si4823   Si       0.83174    0.25057    0.94265    1.000
    N4824    N        0.85446    0.28152    0.96358    1.000
    N4825    N        0.76502    0.27444    0.88306    1.000
    N4826    N        0.83370    0.25742    0.89975    1.000
    Si4827   Si       0.84528    0.29851    0.88799    1.000
    Si4828   Si       0.95796    0.28020    0.92208    1.000
    Si4829   Si       0.87501    0.24865    0.98640    1.000
    N4830    N        0.93210    0.28132    0.88657    1.000
    N4831    N        0.91703    0.24477    0.98330    1.000
    Si4832   Si       0.93531    0.28197    0.99524    1.000
    N4833    N        0.77605    0.33430    0.04956    1.000
    N4834    N        0.84047    0.31819    0.03131    1.000
    Si4835   Si       0.80012    0.30794    0.02338    1.000
    Si4836   Si       0.85169    0.35818    0.01560    1.000
    N4837    N        0.92349    0.32128    0.08608    1.000
    N4838    N        0.95976    0.33360    0.01949    1.000
    Si4839   Si       0.92044    0.33442    0.04251    1.000
    Si4840   Si       0.95258    0.34227    0.11218    1.000
    N4841    N        0.76256    0.31783    0.21389    1.000
    Si4842   Si       0.82847    0.33526    0.19813    1.000
    N4843    N        0.81708    0.34308    0.24005    1.000
    N4844    N        0.74771    0.30234    0.14884    1.000
    Si4845   Si       0.95834    0.33247    0.18605    1.000
    N4846    N        0.86663    0.30855    0.13667    1.000
    N4847    N        0.93788    0.31596    0.22036    1.000
    N4848    N        0.93180    0.33440    0.15053    1.000
    Si4849   Si       0.88905    0.34057    0.15722    1.000
    N4850    N        0.87391    0.33224    0.19685    1.000
    Si4851   Si       0.89542    0.30292    0.22198    1.000
    N4852    N        0.83888    0.34648    0.31007    1.000
    Si4853   Si       0.84710    0.31661    0.34271    1.000
    Si4854   Si       0.77877    0.31568    0.25404    1.000
    Si4855   Si       0.85304    0.34230    0.26833    1.000
    N4856    N        0.76325    0.35333    0.27226    1.000
    N4857    N        0.88189    0.31049    0.26347    1.000
    N4858    N        0.96676    0.32269    0.28793    1.000
    N4859    N        0.97107    0.30918    0.35234    1.000
    N4860    N        0.88590    0.32123    0.36336    1.000
    Si4861   Si       0.97001    0.31061    0.24850    1.000
    N4862    N        0.81946    0.31836    0.37519    1.000
    Si4863   Si       0.78699    0.34807    0.38198    1.000
    N4864    N        0.84684    0.34211    0.46167    1.000
    N4865    N        0.77046    0.34918    0.47117    1.000
    N4866    N        0.74701    0.33007    0.38334    1.000
    Si4867   Si       0.76423    0.30785    0.46029    1.000
    N4868    N        0.90624    0.33256    0.43034    1.000
    Si4869   Si       0.96875    0.34303    0.37663    1.000
    N4870    N        0.97673    0.32587    0.41577    1.000
    Si4871   Si       0.94681    0.33455    0.44635    1.000
    Si4872   Si       0.87638    0.30960    0.45078    1.000
    Si4873   Si       0.89850    0.35136    0.39315    1.000
    N4874    N        0.95047    0.30564    0.47934    1.000
    N4875    N        0.76753    0.32061    0.55582    1.000
    N4876    N        0.82169    0.32844    0.60038    1.000
    Si4877   Si       0.80920    0.33045    0.55795    1.000
    Si4878   Si       0.84050    0.34798    0.50654    1.000
    N4879    N        0.83902    0.31232    0.53048    1.000
    Si4880   Si       0.86283    0.34200    0.60854    1.000
    N4881    N        0.92372    0.32965    0.54216    1.000
    Si4882   Si       0.96115    0.32042    0.51875    1.000
    N4883    N        0.89226    0.31128    0.61112    1.000
    Si4884   Si       0.97780    0.32828    0.61556    1.000
    Si4885   Si       0.91638    0.30276    0.57533    1.000
    N4886    N        0.98512    0.35713    0.52160    1.000
    N4887    N        0.75935    0.32067    0.63562    1.000
    N4888    N        0.81787    0.33574    0.67135    1.000
    Si4889   Si       0.80307    0.31460    0.63732    1.000
    N4890    N        0.84322    0.32260    0.72872    1.000
    N4891    N        0.77266    0.33946    0.72742    1.000
    Si4892   Si       0.81548    0.35585    0.72313    1.000
    N4893    N        0.96480    0.31628    0.65620    1.000
    Si4894   Si       0.96888    0.34806    0.68605    1.000
    Si4895   Si       0.76645    0.32596    0.76710    1.000
    N4896    N        0.85177    0.34885    0.81413    1.000
    Si4897   Si       0.83003    0.31078    0.81247    1.000
    N4898    N        0.74555    0.31533    0.84066    1.000
    Si4899   Si       0.78151    0.31476    0.86826    1.000
    N4900    N        0.81832    0.30222    0.85356    1.000
    Si4901   Si       0.98491    0.32462    0.86806    1.000
    N4902    N        0.94289    0.34321    0.76528    1.000
    N4903    N        0.94622    0.34180    0.85794    1.000
    Si4904   Si       0.91628    0.30972    0.85818    1.000
    N4905    N        0.87899    0.32356    0.87221    1.000
    Si4906   Si       0.93221    0.30429    0.77886    1.000
    N4907    N        0.82946    0.32294    0.91873    1.000
    N4908    N        0.85927    0.35713    0.97336    1.000
    N4909    N        0.78227    0.35811    0.87638    1.000
    Si4910   Si       0.83672    0.32269    0.96109    1.000
    N4911    N        0.79994    0.32323    0.98406    1.000
    Si4912   Si       0.76989    0.34932    0.96941    1.000
    N4913    N        0.94557    0.30425    0.95837    1.000
    Si4914   Si       0.95269    0.34268    0.97517    1.000
    N4915    N        0.75947    0.39733    0.07728    1.000
    N4916    N        0.82070    0.38754    0.03150    1.000
    Si4917   Si       0.79485    0.37175    0.06492    1.000
    N4918    N        0.82029    0.37136    0.09788    1.000
    N4919    N        0.94337    0.38202    0.09766    1.000
    Si4920   Si       0.90346    0.40484    0.03789    1.000
    N4921    N        0.94510    0.40137    0.03148    1.000
    Si4922   Si       0.96522    0.40744    0.07042    1.000
    Si4923   Si       0.90722    0.40394    0.10842    1.000
    N4924    N        0.88880    0.36343    0.04005    1.000
    N4925    N        0.88422    0.41852    0.00185    1.000
    Si4926   Si       0.78673    0.39582    0.18582    1.000
    Si4927   Si       0.84048    0.38316    0.13439    1.000
    N4928    N        0.82069    0.36797    0.17082    1.000
    N4929    N        0.79830    0.41045    0.22416    1.000
    N4930    N        0.74676    0.38055    0.19668    1.000
    N4931    N        0.88237    0.37626    0.12908    1.000
    Si4932   Si       0.89266    0.39941    0.22684    1.000
    Si4933   Si       0.96899    0.39989    0.20296    1.000
    N4934    N        0.92901    0.38639    0.20733    1.000
    N4935    N        0.97887    0.41820    0.16270    1.000
    N4936    N        0.98856    0.36195    0.19874    1.000
    Si4937   Si       0.81746    0.38086    0.32665    1.000
    N4938    N        0.80037    0.40125    0.29029    1.000
    N4939    N        0.84037    0.41276    0.34226    1.000
    Si4940   Si       0.79639    0.37949    0.25337    1.000
    N4941    N        0.78204    0.36479    0.34422    1.000
    Si4942   Si       0.75036    0.36096    0.31300    1.000
    N4943    N        0.91250    0.40924    0.31642    1.000
    N4944    N        0.86991    0.38302    0.25967    1.000
    N4945    N        0.97838    0.39203    0.28724    1.000
    Si4946   Si       0.92671    0.41183    0.35747    1.000
    Si4947   Si       0.88058    0.41624    0.28629    1.000
    N4948    N        0.77073    0.41003    0.48487    1.000
    Si4949   Si       0.83990    0.37438    0.43527    1.000
    Si4950   Si       0.76949    0.38614    0.44648    1.000
    N4951    N        0.84342    0.41119    0.46090    1.000
    N4952    N        0.79890    0.37415    0.41706    1.000
    Si4953   Si       0.85874    0.41770    0.38018    1.000
    N4954    N        0.86518    0.37960    0.40023    1.000
    N4955    N        0.93384    0.37057    0.37692    1.000
    N4956    N        0.95981    0.37284    0.46022    1.000
    Si4957   Si       0.77144    0.37054    0.50776    1.000
    Si4958   Si       0.85534    0.41612    0.50336    1.000
    N4959    N        0.80777    0.36600    0.52921    1.000
    N4960    N        0.87113    0.37708    0.51376    1.000
    N4961    N        0.93478    0.39741    0.54537    1.000
    Si4962   Si       0.97249    0.38045    0.55705    1.000
    Si4963   Si       0.89068    0.40063    0.61330    1.000
    N4964    N        0.97352    0.36790    0.59765    1.000
    Si4965   Si       0.90391    0.36790    0.53960    1.000
    N4966    N        0.88336    0.36766    0.57935    1.000
    Si4967   Si       0.75796    0.41513    0.65709    1.000
    Si4968   Si       0.82818    0.37948    0.66049    1.000
    N4969    N        0.83561    0.38859    0.70169    1.000
    N4970    N        0.80150    0.41315    0.64829    1.000
    N4971    N        0.74908    0.40035    0.73460    1.000
    N4972    N        0.86009    0.37629    0.63419    1.000
    Si4973   Si       0.86443    0.41361    0.72157    1.000
    N4974    N        0.92750    0.39940    0.63559    1.000
    Si4975   Si       0.92476    0.37593    0.74335    1.000
    N4976    N        0.93399    0.37066    0.70175    1.000
    N4977    N        0.99058    0.37706    0.66234    1.000
    Si4978   Si       0.97074    0.39826    0.62867    1.000
    Si4979   Si       0.92697    0.40792    0.67868    1.000
    Si4980   Si       0.77370    0.39248    0.76911    1.000
    Si4981   Si       0.85260    0.38110    0.78335    1.000
    N4982    N        0.81328    0.37335    0.76412    1.000
    N4983    N        0.85069    0.41701    0.80903    1.000
    N4984    N        0.75171    0.36138    0.78968    1.000
    N4985    N        0.95845    0.40377    0.75332    1.000
    N4986    N        0.90071    0.38942    0.84388    1.000
    N4987    N        0.96748    0.40391    0.82986    1.000
    Si4988   Si       0.94125    0.38432    0.85978    1.000
    N4989    N        0.88372    0.38752    0.75261    1.000
    Si4990   Si       0.86930    0.36267    0.85475    1.000
    Si4991   Si       0.98217    0.36343    0.75220    1.000
    N4992    N        0.79318    0.37222    0.94003    1.000
    N4993    N        0.75318    0.38925    0.98184    1.000
    N4994    N        0.84604    0.38654    0.88392    1.000
    Si4995   Si       0.75382    0.38899    0.88578    1.000
    Si4996   Si       0.77898    0.41267    0.95315    1.000
    Si4997   Si       0.81700    0.36335    0.90535    1.000
    N4998    N        0.95218    0.39465    0.90139    1.000
    Si4999   Si       0.88705    0.39094    0.96667    1.000
    Si5000   Si       0.96363    0.40149    0.99039    1.000
    Si5001   Si       0.98383    0.39180    0.92931    1.000
    N5002    N        0.92761    0.37668    0.97315    1.000
    N5003    N        0.89173    0.41548    0.92918    1.000
    N5004    N        0.98711    0.36468    0.96486    1.000
    N5005    N        0.80160    0.44967    0.08991    1.000
    N5006    N        0.77818    0.44664    0.02599    1.000
    Si5007   Si       0.76787    0.43751    0.06664    1.000
    N5008    N        0.84327    0.45787    0.03312    1.000
    Si5009   Si       0.81771    0.42813    0.01650    1.000
    Si5010   Si       0.87907    0.46154    0.00824    1.000
    N5011    N        0.95802    0.44759    0.08376    1.000
    Si5012   Si       0.91964    0.46615    0.07059    1.000
    N5013    N        0.89635    0.42803    0.07485    1.000
    Si5014   Si       0.97844    0.47530    0.10936    1.000
    N5015    N        0.91526    0.47528    0.02824    1.000
    N5016    N        0.84545    0.42708    0.14133    1.000
    Si5017   Si       0.78382    0.45001    0.23106    1.000
    Si5018   Si       0.75030    0.46159    0.16380    1.000
    Si5019   Si       0.81014    0.44787    0.13073    1.000
    N5020    N        0.78098    0.42884    0.15607    1.000
    N5021    N        0.76459    0.47808    0.20150    1.000
    N5022    N        0.93835    0.46325    0.20065    1.000
    Si5023   Si       0.94804    0.44696    0.16025    1.000
    N5024    N        0.91480    0.43184    0.14059    1.000
    N5025    N        0.87919    0.43083    0.20242    1.000
    Si5026   Si       0.90496    0.45812    0.22659    1.000
    Si5027   Si       0.87890    0.44415    0.16070    1.000
    N5028    N        0.78720    0.45517    0.32375    1.000
    N5029    N        0.75643    0.44970    0.26507    1.000
    Si5030   Si       0.83022    0.45124    0.32355    1.000
    N5031    N        0.85538    0.45154    0.28809    1.000
    Si5032   Si       0.76536    0.42535    0.30111    1.000
    N5033    N        0.97063    0.45443    0.28805    1.000
    N5034    N        0.91299    0.43023    0.25857    1.000
    N5035    N        0.96507    0.43266    0.35872    1.000
    Si5036   Si       0.94537    0.41889    0.28787    1.000
    N5037    N        0.83384    0.44828    0.39928    1.000
    Si5038   Si       0.79317    0.44552    0.48698    1.000
    Si5039   Si       0.84633    0.44828    0.44110    1.000
    N5040    N        0.81197    0.46919    0.45702    1.000
    N5041    N        0.89778    0.43665    0.37813    1.000
    Si5042   Si       0.90248    0.47197    0.48198    1.000
    N5043    N        0.88613    0.46652    0.44195    1.000
    Si5044   Si       0.96477    0.47527    0.37104    1.000
    Si5045   Si       0.90425    0.47433    0.40317    1.000
    N5046    N        0.81635    0.44550    0.58962    1.000
    N5047    N        0.82135    0.43916    0.52001    1.000
    Si5048   Si       0.79460    0.45233    0.55315    1.000
    N5049    N        0.75472    0.43384    0.55656    1.000
    Si5050   Si       0.85875    0.45700    0.58827    1.000
    N5051    N        0.75719    0.46935    0.50164    1.000
    Si5052   Si       0.74039    0.42455    0.51708    1.000
    N5053    N        0.89098    0.43275    0.58254    1.000
    N5054    N        0.89102    0.44280    0.51176    1.000
    Si5055   Si       0.91686    0.43779    0.54709    1.000
    N5056    N        0.94899    0.46369    0.56167    1.000
    Si5057   Si       0.98692    0.44794    0.57358    1.000
    Si5058   Si       0.81544    0.45002    0.63135    1.000
    N5059    N        0.85951    0.45761    0.63255    1.000
    N5060    N        0.75571    0.44630    0.68678    1.000
    N5061    N        0.84322    0.44668    0.73848    1.000
    Si5062   Si       0.95019    0.47766    0.68832    1.000
    Si5063   Si       0.88660    0.46554    0.66693    1.000
    N5064    N        0.95892    0.43519    0.69014    1.000
    N5065    N        0.89154    0.42955    0.69028    1.000
    Si5066   Si       0.98165    0.42778    0.72468    1.000
    N5067    N        0.79126    0.44275    0.85238    1.000
    Si5068   Si       0.81441    0.43997    0.81140    1.000
    Si5069   Si       0.75455    0.43404    0.83240    1.000
    N5070    N        0.77555    0.42549    0.79498    1.000
    N5071    N        0.97715    0.45831    0.78018    1.000
    N5072    N        0.91856    0.44691    0.80053    1.000
    Si5073   Si       0.88998    0.42866    0.82855    1.000
    N5074    N        0.87993    0.45000    0.86470    1.000
    Si5075   Si       0.95565    0.42295    0.79388    1.000
    Si5076   Si       0.93699    0.47891    0.77515    1.000
    Si5077   Si       0.77352    0.47688    0.99364    1.000
    Si5078   Si       0.74655    0.46047    0.92159    1.000
    N5079    N        0.83554    0.45593    0.91327    1.000
    Si5080   Si       0.83229    0.46769    0.95509    1.000
    Si5081   Si       0.80574    0.46838    0.88456    1.000
    N5082    N        0.81605    0.43008    0.97215    1.000
    N5083    N        0.75018    0.45011    0.96454    1.000
    N5084    N        0.76720    0.42267    0.91147    1.000
    Si5085   Si       0.86442    0.42561    0.89498    1.000
    N5086    N        0.94329    0.46822    0.91269    1.000
    Si5087   Si       0.93409    0.42911    0.92393    1.000
    N5088    N        0.96934    0.42659    0.95388    1.000
    N5089    N        0.87266    0.47691    0.96925    1.000
    N5090    N        0.79070    0.51066    0.05997    1.000
    Si5091   Si       0.74874    0.50511    0.05382    1.000
    N5092    N        0.85232    0.49864    0.08720    1.000
    N5093    N        0.74531    0.50364    0.01147    1.000
    Si5094   Si       0.82154    0.47998    0.06315    1.000
    N5095    N        0.91748    0.50651    0.08652    1.000
    Si5096   Si       0.94398    0.50217    0.00597    1.000
    N5097    N        0.98258    0.51041    0.08623    1.000
    N5098    N        0.95125    0.53396    0.03388    1.000
    Si5099   Si       0.88053    0.53414    0.07969    1.000
    Si5100   Si       0.84952    0.50871    0.13015    1.000
    Si5101   Si       0.78760    0.51998    0.14919    1.000
    N5102    N        0.75157    0.49770    0.13853    1.000
    Si5103   Si       0.78717    0.51045    0.21950    1.000
    N5104    N        0.81678    0.48742    0.15123    1.000
    N5105    N        0.81447    0.48124    0.23750    1.000
    Si5106   Si       0.91678    0.51359    0.13233    1.000
    N5107    N        0.88451    0.49318    0.23918    1.000
    N5108    N        0.95318    0.48859    0.14446    1.000
    Si5109   Si       0.91486    0.52511    0.23513    1.000
    N5110    N        0.93235    0.53275    0.19633    1.000
    Si5111   Si       0.95994    0.49911    0.18567    1.000
    N5112    N        0.88614    0.48637    0.15020    1.000
    N5113    N        0.83675    0.52745    0.28135    1.000
    N5114    N        0.75207    0.52335    0.32625    1.000
    Si5115   Si       0.84812    0.48838    0.26362    1.000
    N5116    N        0.83684    0.48622    0.34884    1.000
    Si5117   Si       0.75784    0.48086    0.33903    1.000
    N5118    N        0.77434    0.53613    0.25349    1.000
    Si5119   Si       0.86414    0.51917    0.35122    1.000
    N5120    N        0.94997    0.49874    0.33770    1.000
    Si5121   Si       0.96772    0.49694    0.29709    1.000
    N5122    N        0.94731    0.51991    0.26771    1.000
    Si5123   Si       0.92536    0.53342    0.34854    1.000
    N5124    N        0.89196    0.52787    0.31807    1.000
    N5125    N        0.80438    0.52639    0.48657    1.000
    N5126    N        0.75476    0.51287    0.44412    1.000
    Si5127   Si       0.79841    0.50891    0.44852    1.000
    N5128    N        0.81961    0.51635    0.41158    1.000
    N5129    N        0.76628    0.48027    0.38146    1.000
    Si5130   Si       0.81129    0.48286    0.38556    1.000
    N5131    N        0.94381    0.48130    0.48166    1.000
    Si5132   Si       0.95071    0.50578    0.44428    1.000
    N5133    N        0.98737    0.52392    0.45946    1.000
    N5134    N        0.94677    0.48037    0.41018    1.000
    N5135    N        0.89502    0.50818    0.37934    1.000
    Si5136   Si       0.77475    0.50813    0.51177    1.000
    Si5137   Si       0.82407    0.52126    0.56755    1.000
    N5138    N        0.79301    0.49734    0.55015    1.000
    N5139    N        0.85892    0.49414    0.56752    1.000
    N5140    N        0.74382    0.53735    0.51360    1.000
    Si5141   Si       0.94974    0.50754    0.56485    1.000
    N5142    N        0.97101    0.51483    0.60160    1.000
    Si5143   Si       0.88165    0.52045    0.54249    1.000
    N5144    N        0.91307    0.52632    0.57212    1.000
    N5145    N        0.96431    0.52837    0.52978    1.000
    N5146    N        0.88606    0.50900    0.50029    1.000
    Si5147   Si       0.98052    0.50248    0.49711    1.000
    Si5148   Si       0.76101    0.48583    0.67212    1.000
    Si5149   Si       0.79900    0.52989    0.63750    1.000
    N5150    N        0.75616    0.50896    0.70955    1.000
    N5151    N        0.82084    0.51917    0.73471    1.000
    Si5152   Si       0.84203    0.52593    0.69800    1.000
    N5153    N        0.79513    0.48583    0.64588    1.000
    N5154    N        0.93556    0.48294    0.73086    1.000
    N5155    N        0.92413    0.48014    0.65222    1.000
    Si5156   Si       0.94620    0.51709    0.63844    1.000
    Si5157   Si       0.90127    0.51004    0.72732    1.000
    N5158    N        0.96884    0.51472    0.67652    1.000
    N5159    N        0.87423    0.49743    0.69531    1.000
    Si5160   Si       0.81591    0.50929    0.82536    1.000
    N5161    N        0.77481    0.51725    0.82890    1.000
    N5162    N        0.83157    0.49756    0.86525    1.000
    Si5163   Si       0.83974    0.48546    0.75689    1.000
    N5164    N        0.82291    0.47917    0.79595    1.000
    N5165    N        0.94406    0.51794    0.79124    1.000
    N5166    N        0.87824    0.50576    0.76218    1.000
    N5167    N        0.89351    0.51360    0.83883    1.000
    N5168    N        0.96006    0.51147    0.86430    1.000
    Si5169   Si       0.87999    0.52993    0.79971    1.000
    Si5170   Si       0.93492    0.52904    0.83253    1.000
    Si5171   Si       0.87443    0.49358    0.87154    1.000
    N5172    N        0.77451    0.48903    0.90566    1.000
    N5173    N        0.80853    0.49792    0.97715    1.000
    Si5174   Si       0.76637    0.52852    0.92039    1.000
    N5175    N        0.92687    0.52193    0.97097    1.000
    N5176    N        0.89427    0.51067    0.90771    1.000
    Si5177   Si       0.88861    0.51124    0.95199    1.000
    N5178    N        0.98555    0.48951    0.99222    1.000
    Si5179   Si       0.93644    0.50901    0.90181    1.000
    N5180    N        0.77079    0.57248    0.05456    1.000
    N5181    N        0.84537    0.55689    0.06205    1.000
    Si5182   Si       0.80350    0.54956    0.07467    1.000
    Si5183   Si       0.84484    0.58711    0.03132    1.000
    Si5184   Si       0.77488    0.58764    0.01482    1.000
    N5185    N        0.81335    0.57138    0.00473    1.000
    N5186    N        0.74068    0.59412    0.11349    1.000
    N5187    N        0.81263    0.54096    0.11890    1.000
    Si5188   Si       0.97996    0.56573    0.02642    1.000
    N5189    N        0.91103    0.57059    0.07362    1.000
    Si5190   Si       0.91559    0.58904    0.11328    1.000
    N5191    N        0.97866    0.57571    0.06987    1.000
    N5192    N        0.88426    0.58681    0.01223    1.000
    Si5193   Si       0.94868    0.54063    0.08010    1.000
    N5194    N        0.83445    0.57868    0.24078    1.000
    N5195    N        0.84480    0.58224    0.17032    1.000
    Si5196   Si       0.84401    0.57403    0.12718    1.000
    Si5197   Si       0.81414    0.57743    0.19994    1.000
    N5198    N        0.79296    0.54067    0.18830    1.000
    N5199    N        0.94150    0.55268    0.12677    1.000
    N5200    N        0.87674    0.54219    0.12600    1.000
    Si5201   Si       0.94673    0.56533    0.17010    1.000
    N5202    N        0.79424    0.57970    0.30560    1.000
    N5203    N        0.84073    0.55630    0.35775    1.000
    Si5204   Si       0.80772    0.55959    0.26858    1.000
    Si5205   Si       0.82852    0.58729    0.32976    1.000
    Si5206   Si       0.74460    0.53898    0.28456    1.000
    Si5207   Si       0.74047    0.54592    0.36399    1.000
    N5208    N        0.86211    0.59181    0.30097    1.000
    N5209    N        0.94485    0.56286    0.31977    1.000
    Si5210   Si       0.93951    0.56229    0.27809    1.000
    N5211    N        0.89933    0.55945    0.25552    1.000
    Si5212   Si       0.87257    0.55128    0.28833    1.000
    Si5213   Si       0.94561    0.59328    0.35144    1.000
    N5214    N        0.96360    0.59253    0.26139    1.000
    N5215    N        0.85879    0.56763    0.47076    1.000
    N5216    N        0.77361    0.55733    0.38759    1.000
    Si5217   Si       0.81697    0.55646    0.39452    1.000
    Si5218   Si       0.89600    0.54672    0.48222    1.000
    Si5219   Si       0.93063    0.57333    0.42180    1.000
    N5220    N        0.93929    0.56182    0.38152    1.000
    N5221    N        0.92165    0.53937    0.44617    1.000
    Si5222   Si       0.83723    0.58296    0.60243    1.000
    N5223    N        0.84610    0.54888    0.53965    1.000
    Si5224   Si       0.76447    0.58651    0.58902    1.000
    N5225    N        0.79913    0.59362    0.50421    1.000
    N5226    N        0.76499    0.54927    0.61446    1.000
    Si5227   Si       0.82690    0.56041    0.49978    1.000
    N5228    N        0.82838    0.53943    0.60859    1.000
    N5229    N        0.90772    0.56799    0.51849    1.000
    Si5230   Si       0.91514    0.56308    0.59545    1.000
    Si5231   Si       0.94996    0.56995    0.53196    1.000
    N5232    N        0.87879    0.58466    0.58674    1.000
    Si5233   Si       0.87597    0.58434    0.54329    1.000
    N5234    N        0.94835    0.58329    0.57275    1.000
    N5235    N        0.97155    0.59906    0.50785    1.000
    Si5236   Si       0.82688    0.58445    0.67666    1.000
    N5237    N        0.80574    0.54490    0.67804    1.000
    N5238    N        0.86288    0.56393    0.69340    1.000
    Si5239   Si       0.78440    0.53907    0.71854    1.000
    N5240    N        0.76771    0.56998    0.74204    1.000
    Si5241   Si       0.93686    0.59261    0.65818    1.000
    Si5242   Si       0.89561    0.58138    0.71379    1.000
    N5243    N        0.98559    0.54630    0.74215    1.000
    Si5244   Si       0.96477    0.54709    0.70298    1.000
    N5245    N        0.92393    0.54879    0.72356    1.000
    N5246    N        0.97397    0.58105    0.68021    1.000
    N5247    N        0.92789    0.55678    0.63497    1.000
    Si5248   Si       0.75634    0.55431    0.84723    1.000
    N5249    N        0.78816    0.58458    0.83305    1.000
    Si5250   Si       0.82599    0.58187    0.81002    1.000
    N5251    N        0.84108    0.54119    0.80993    1.000
    N5252    N        0.90504    0.56401    0.78923    1.000
    N5253    N        0.93142    0.56958    0.84730    1.000
    Si5254   Si       0.94398    0.55481    0.76498    1.000
    Si5255   Si       0.90148    0.59315    0.82120    1.000
    N5256    N        0.75819    0.56022    0.88982    1.000
    N5257    N        0.79636    0.55316    0.93997    1.000
    Si5258   Si       0.78083    0.58571    0.91667    1.000
    Si5259   Si       0.82202    0.54205    0.97226    1.000
    N5260    N        0.86405    0.54583    0.96240    1.000
    N5261    N        0.98304    0.55600    0.98210    1.000
    Si5262   Si       0.88765    0.58164    0.96926    1.000
    Si5263   Si       0.95822    0.57803    0.88188    1.000
    Si5264   Si       0.94960    0.55789    0.95460    1.000
    N5265    N        0.95320    0.54919    0.91245    1.000
    N5266    N        0.93030    0.59635    0.95745    1.000
    Si5267   Si       0.84478    0.62890    0.09267    1.000
    N5268    N        0.84462    0.62802    0.04905    1.000
    N5269    N        0.77752    0.63205    0.00414    1.000
    Si5270   Si       0.77689    0.62084    0.11462    1.000
    N5271    N        0.77250    0.64464    0.07879    1.000
    N5272    N        0.81434    0.60208    0.10951    1.000
    N5273    N        0.90931    0.63678    0.05253    1.000
    N5274    N        0.94616    0.62351    0.10771    1.000
    N5275    N        0.95555    0.60174    0.01723    1.000
    N5276    N        0.87560    0.60665    0.11804    1.000
    Si5277   Si       0.94326    0.65473    0.07575    1.000
    Si5278   Si       0.98626    0.60294    0.10404    1.000
    Si5279   Si       0.91926    0.59353    0.03904    1.000
    N5280    N        0.78910    0.61112    0.20157    1.000
    Si5281   Si       0.79803    0.64482    0.22986    1.000
    Si5282   Si       0.75498    0.63627    0.18202    1.000
    N5283    N        0.77112    0.65220    0.14444    1.000
    Si5284   Si       0.95081    0.63427    0.15188    1.000
    N5285    N        0.92141    0.60077    0.16364    1.000
    N5286    N        0.87976    0.62087    0.21167    1.000
    Si5287   Si       0.88029    0.61339    0.16815    1.000
    N5288    N        0.76087    0.64179    0.32355    1.000
    N5289    N        0.82466    0.62746    0.34506    1.000
    N5290    N        0.80516    0.64030    0.27171    1.000
    Si5291   Si       0.80227    0.65006    0.31430    1.000
    Si5292   Si       0.75336    0.59963    0.31340    1.000
    Si5293   Si       0.88578    0.62701    0.31286    1.000
    N5294    N        0.90602    0.62452    0.27289    1.000
    N5295    N        0.90805    0.61524    0.34799    1.000
    Si5296   Si       0.94652    0.63324    0.26303    1.000
    N5297    N        0.98280    0.61051    0.35586    1.000
    Si5298   Si       0.87488    0.59804    0.24930    1.000
    Si5299   Si       0.76340    0.60577    0.48056    1.000
    N5300    N        0.78160    0.64439    0.46551    1.000
    N5301    N        0.85003    0.63225    0.46361    1.000
    Si5302   Si       0.82866    0.63237    0.38794    1.000
    Si5303   Si       0.86043    0.59716    0.44078    1.000
    N5304    N        0.82960    0.59468    0.40993    1.000
    N5305    N        0.95591    0.60309    0.44176    1.000
    Si5306   Si       0.95323    0.62485    0.47887    1.000
    N5307    N        0.89564    0.60076    0.41675    1.000
    Si5308   Si       0.90555    0.63463    0.38728    1.000
    Si5309   Si       0.98414    0.64781    0.37581    1.000
    N5310    N        0.86802    0.65377    0.39206    1.000
    Si5311   Si       0.81162    0.62009    0.53672    1.000
    N5312    N        0.85444    0.61814    0.53147    1.000
    N5313    N        0.75455    0.61950    0.61738    1.000
    N5314    N        0.80516    0.59676    0.57353    1.000
    N5315    N        0.98360    0.65039    0.58081    1.000
    Si5316   Si       0.96729    0.61408    0.59824    1.000
    Si5317   Si       0.87251    0.64252    0.49978    1.000
    N5318    N        0.91474    0.64084    0.49572    1.000
    N5319    N        0.74635    0.59726    0.67801    1.000
    Si5320   Si       0.79294    0.63457    0.63372    1.000
    Si5321   Si       0.77234    0.62203    0.69985    1.000
    N5322    N        0.82379    0.60341    0.63856    1.000
    N5323    N        0.75820    0.63781    0.73850    1.000
    N5324    N        0.81421    0.60952    0.70736    1.000
    Si5325   Si       0.83906    0.62077    0.74074    1.000
    N5326    N        0.78728    0.65372    0.67397    1.000
    N5327    N        0.93763    0.62487    0.62682    1.000
    Si5328   Si       0.91801    0.65221    0.69954    1.000
    N5329    N        0.91369    0.60896    0.68904    1.000
    Si5330   Si       0.78345    0.61757    0.85940    1.000
    Si5331   Si       0.84498    0.64380    0.84451    1.000
    Si5332   Si       0.77125    0.60764    0.76710    1.000
    N5333    N        0.81411    0.60662    0.77544    1.000
    N5334    N        0.85819    0.60214    0.83178    1.000
    N5335    N        0.80274    0.65272    0.84081    1.000
    N5336    N        0.91992    0.63076    0.80768    1.000
    Si5337   Si       0.91866    0.62366    0.76555    1.000
    N5338    N        0.95496    0.59892    0.76457    1.000
    N5339    N        0.88009    0.60853    0.74569    1.000
    N5340    N        0.74366    0.62952    0.86952    1.000
    N5341    N        0.75920    0.61396    0.94192    1.000
    Si5342   Si       0.77767    0.64789    0.96142    1.000
    N5343    N        0.80809    0.60695    0.89321    1.000
    Si5344   Si       0.83998    0.62744    0.91758    1.000
    N5345    N        0.81783    0.65058    0.94634    1.000
    N5346    N        0.85942    0.65047    0.88395    1.000
    N5347    N        0.87311    0.60558    0.93584    1.000
    Si5348   Si       0.91360    0.61891    0.92268    1.000
    Si5349   Si       0.95905    0.62470    0.98116    1.000
    N5350    N        0.94413    0.61703    0.89249    1.000
    N5351    N        0.84261    0.67067    0.10048    1.000
    N5352    N        0.80662    0.69176    0.03933    1.000
    Si5353   Si       0.83772    0.70044    0.06872    1.000
    Si5354   Si       0.77693    0.65943    0.03835    1.000
    N5355    N        0.75813    0.70903    0.10575    1.000
    Si5356   Si       0.74103    0.67539    0.08649    1.000
    N5357    N        0.73958    0.68146    0.04225    1.000
    N5358    N        0.97524    0.66630    0.04898    1.000
    N5359    N        0.92961    0.69039    0.09563    1.000
    Si5360   Si       0.96207    0.69029    0.01656    1.000
    N5361    N        0.87707    0.69572    0.05051    1.000
    Si5362   Si       0.87530    0.65630    0.03196    1.000
    Si5363   Si       0.85107    0.68722    0.13832    1.000
    N5364    N        0.83056    0.67074    0.21410    1.000
    Si5365   Si       0.77347    0.69597    0.14502    1.000
    Si5366   Si       0.75247    0.70351    0.21458    1.000
    N5367    N        0.81535    0.70448    0.15722    1.000
    Si5368   Si       0.82061    0.71126    0.20035    1.000
    N5369    N        0.75823    0.66113    0.21869    1.000
    N5370    N        0.74415    0.71341    0.17303    1.000
    N5371    N        0.94115    0.67357    0.16670    1.000
    Si5372   Si       0.91972    0.69923    0.13694    1.000
    Si5373   Si       0.93914    0.68843    0.20831    1.000
    Si5374   Si       0.87067    0.66241    0.20526    1.000
    N5375    N        0.89687    0.69508    0.22251    1.000
    N5376    N        0.87138    0.65894    0.16159    1.000
    N5377    N        0.96172    0.65698    0.23069    1.000
    N5378    N        0.81195    0.69164    0.32076    1.000
    N5379    N        0.76151    0.70488    0.36469    1.000
    Si5380   Si       0.85277    0.70211    0.30994    1.000
    N5381    N        0.88390    0.67202    0.31314    1.000
    Si5382   Si       0.92324    0.68760    0.30803    1.000
    N5383    N        0.95747    0.66258    0.29442    1.000
    N5384    N        0.93618    0.71079    0.34383    1.000
    Si5385   Si       0.79523    0.70264    0.39466    1.000
    N5386    N        0.85107    0.69495    0.44776    1.000
    N5387    N        0.80625    0.66184    0.40784    1.000
    Si5388   Si       0.81923    0.66265    0.45187    1.000
    N5389    N        0.79670    0.70301    0.48838    1.000
    Si5390   Si       0.86429    0.69303    0.40706    1.000
    N5391    N        0.96894    0.70922    0.41849    1.000
    N5392    N        0.96785    0.66629    0.47411    1.000
    Si5393   Si       0.94020    0.70224    0.38676    1.000
    N5394    N        0.94218    0.65726    0.38461    1.000
    Si5395   Si       0.78556    0.68609    0.57108    1.000
    N5396    N        0.79355    0.67333    0.61218    1.000
    Si5397   Si       0.82523    0.70797    0.51977    1.000
    N5398    N        0.85863    0.68085    0.51135    1.000
    Si5399   Si       0.76708    0.66949    0.49892    1.000
    N5400    N        0.82277    0.70789    0.56233    1.000
    N5401    N        0.78707    0.65729    0.53750    1.000
    N5402    N        0.75364    0.71174    0.56104    1.000
    Si5403   Si       0.96829    0.69039    0.58077    1.000
    N5404    N        0.94616    0.69226    0.54319    1.000
    N5405    N        0.93700    0.69597    0.61259    1.000
    Si5406   Si       0.93803    0.67895    0.50178    1.000
    N5407    N        0.82559    0.70191    0.67022    1.000
    Si5408   Si       0.78505    0.69623    0.64893    1.000
    N5409    N        0.83858    0.66459    0.73584    1.000
    Si5410   Si       0.81134    0.67664    0.70517    1.000
    N5411    N        0.74936    0.70680    0.67712    1.000
    N5412    N        0.95591    0.65799    0.67832    1.000
    Si5413   Si       0.86770    0.70988    0.66281    1.000
    Si5414   Si       0.93162    0.66598    0.64302    1.000
    N5415    N        0.89877    0.67901    0.67028    1.000
    N5416    N        0.92175    0.66118    0.74248    1.000
    N5417    N        0.81052    0.69646    0.78616    1.000
    Si5418   Si       0.85008    0.68221    0.77272    1.000
    Si5419   Si       0.78891    0.69094    0.82207    1.000
    N5420    N        0.74634    0.68127    0.81398    1.000
    N5421    N        0.86319    0.71488    0.86880    1.000
    N5422    N        0.86570    0.66685    0.81038    1.000
    Si5423   Si       0.90688    0.67017    0.82223    1.000
    N5424    N        0.92694    0.70209    0.80118    1.000
    Si5425   Si       0.92162    0.70153    0.75608    1.000
    N5426    N        0.91866    0.67862    0.86362    1.000
    N5427    N        0.97296    0.70663    0.75835    1.000
    Si5428   Si       0.84160    0.68223    0.96434    1.000
    N5429    N        0.75385    0.68255    0.95023    1.000
    N5430    N        0.81148    0.71051    0.97705    1.000
    Si5431   Si       0.88325    0.68463    0.89300    1.000
    N5432    N        0.86320    0.70411    0.93168    1.000
    N5433    N        0.97363    0.68115    0.92411    1.000
    N5434    N        0.90992    0.66151    0.92549    1.000
    N5435    N        0.94364    0.66486    0.98621    1.000
    Si5436   Si       0.90836    0.68132    0.96393    1.000
    N5437    N        0.87346    0.66533    0.98889    1.000
    Si5438   Si       0.95020    0.66104    0.89096    1.000
    N5439    N        0.98900    0.71183    0.98989    1.000
    N5440    N        0.82729    0.74066    0.07969    1.000
    N5441    N        0.76282    0.74396    0.01804    1.000
    Si5442   Si       0.80191    0.72793    0.01655    1.000
    N5443    N        0.82752    0.76351    0.01907    1.000
    N5444    N        0.91284    0.75434    0.08719    1.000
    N5445    N        0.94082    0.72316    0.03256    1.000
    Si5446   Si       0.91118    0.71737    0.06553    1.000
    Si5447   Si       0.93140    0.74745    0.99961    1.000
    N5448    N        0.89682    0.76848    0.01654    1.000
    Si5449   Si       0.84511    0.75128    0.15364    1.000
    N5450    N        0.84392    0.74639    0.19802    1.000
    N5451    N        0.78965    0.72128    0.22765    1.000
    Si5452   Si       0.90736    0.76308    0.12996    1.000
    N5453    N        0.95654    0.72649    0.21975    1.000
    N5454    N        0.88501    0.77054    0.24274    1.000
    N5455    N        0.93731    0.73835    0.15113    1.000
    N5456    N        0.87833    0.72125    0.13880    1.000
    Si5457   Si       0.96756    0.74738    0.18228    1.000
    N5458    N        0.80562    0.75743    0.34545    1.000
    N5459    N        0.77172    0.73536    0.28983    1.000
    Si5460   Si       0.84697    0.74786    0.36061    1.000
    Si5461   Si       0.80650    0.73780    0.26343    1.000
    Si5462   Si       0.78339    0.72313    0.32873    1.000
    N5463    N        0.84670    0.71974    0.27021    1.000
    N5464    N        0.87213    0.73508    0.32878    1.000
    Si5465   Si       0.95482    0.73804    0.26097    1.000
    Si5466   Si       0.91390    0.74264    0.32371    1.000
    N5467    N        0.91821    0.72244    0.28080    1.000
    N5468    N        0.98343    0.72503    0.29039    1.000
    Si5469   Si       0.88577    0.72650    0.25004    1.000
    Si5470   Si       0.78648    0.73790    0.46749    1.000
    N5471    N        0.77171    0.72512    0.42619    1.000
    N5472    N        0.75350    0.75311    0.49262    1.000
    N5473    N        0.83501    0.71751    0.38895    1.000
    N5474    N        0.88364    0.77052    0.44952    1.000
    N5475    N        0.93843    0.76417    0.39919    1.000
    Si5476   Si       0.89744    0.75790    0.40899    1.000
    Si5477   Si       0.96749    0.75122    0.42793    1.000
    N5478    N        0.91354    0.71241    0.49427    1.000
    N5479    N        0.95406    0.76414    0.46758    1.000
    Si5480   Si       0.87424    0.71220    0.48021    1.000
    N5481    N        0.89982    0.71400    0.40125    1.000
    Si5482   Si       0.85207    0.73152    0.58470    1.000
    N5483    N        0.85092    0.74117    0.50252    1.000
    N5484    N        0.82714    0.76717    0.59466    1.000
    Si5485   Si       0.73840    0.74137    0.53438    1.000
    Si5486   Si       0.74060    0.72619    0.60256    1.000
    N5487    N        0.89079    0.73384    0.56500    1.000
    Si5488   Si       0.91987    0.72932    0.53359    1.000
    Si5489   Si       0.91285    0.73267    0.60478    1.000
    N5490    N        0.95068    0.76086    0.53648    1.000
    Si5491   Si       0.97698    0.76927    0.50303    1.000
    N5492    N        0.93546    0.76930    0.60648    1.000
    N5493    N        0.87375    0.72561    0.62408    1.000
    N5494    N        0.77640    0.73249    0.62425    1.000
    Si5495   Si       0.82414    0.74210    0.69283    1.000
    N5496    N        0.79746    0.72026    0.72317    1.000
    Si5497   Si       0.75302    0.72737    0.71521    1.000
    N5498    N        0.74872    0.77064    0.71164    1.000
    Si5499   Si       0.79678    0.77335    0.62823    1.000
    Si5500   Si       0.97151    0.72897    0.72096    1.000
    N5501    N        0.98314    0.76985    0.71626    1.000
    Si5502   Si       0.89960    0.76362    0.71345    1.000
    N5503    N        0.92700    0.73031    0.72244    1.000
    N5504    N        0.86660    0.74557    0.69080    1.000
    Si5505   Si       0.79459    0.73153    0.76604    1.000
    N5506    N        0.75648    0.74134    0.78359    1.000
    N5507    N        0.82738    0.76136    0.77446    1.000
    N5508    N        0.79282    0.72377    0.85016    1.000
    Si5509   Si       0.86874    0.75390    0.78170    1.000
    Si5510   Si       0.96474    0.72548    0.79697    1.000
    Si5511   Si       0.87842    0.75678    0.86324    1.000
    N5512    N        0.88505    0.76271    0.82136    1.000
    N5513    N        0.95968    0.76732    0.80721    1.000
    N5514    N        0.87750    0.71409    0.76456    1.000
    Si5515   Si       0.82549    0.73174    0.88040    1.000
    Si5516   Si       0.76231    0.72598    0.88093    1.000
    N5517    N        0.74752    0.74877    0.95252    1.000
    N5518    N        0.79481    0.73263    0.91184    1.000
    N5519    N        0.74869    0.76702    0.88815    1.000
    Si5520   Si       0.77872    0.71834    0.94950    1.000
    N5521    N        0.84304    0.77231    0.88377    1.000
    N5522    N        0.97407    0.77216    0.89075    1.000
    Si5523   Si       0.88728    0.74147    0.93690    1.000
    N5524    N        0.86516    0.77276    0.95281    1.000
    N5525    N        0.90547    0.75616    0.89832    1.000
    N5526    N        0.91664    0.72593    0.96455    1.000
    N5527    N        0.78075    0.79541    0.06296    1.000
    Si5528   Si       0.75633    0.81398    0.09173    1.000
    Si5529   Si       0.75730    0.78689    0.02602    1.000
    N5530    N        0.85665    0.80453    0.06804    1.000
    Si5531   Si       0.82285    0.77895    0.06090    1.000
    N5532    N        0.86691    0.82127    0.00631    1.000
    N5533    N        0.98326    0.78183    0.08138    1.000
    Si5534   Si       0.89134    0.80125    0.04214    1.000
    N5535    N        0.93015    0.81611    0.05205    1.000
    Si5536   Si       0.94067    0.78818    0.08118    1.000
    N5537    N        0.74567    0.78345    0.11817    1.000
    N5538    N        0.80983    0.77212    0.14100    1.000
    Si5539   Si       0.77606    0.79840    0.14705    1.000
    N5540    N        0.84123    0.81535    0.19969    1.000
    N5541    N        0.77280    0.80897    0.18922    1.000
    Si5542   Si       0.84734    0.78159    0.22472    1.000
    Si5543   Si       0.85718    0.82274    0.16030    1.000
    Si5544   Si       0.96437    0.81054    0.15083    1.000
    Si5545   Si       0.96316    0.82884    0.21005    1.000
    N5546    N        0.93440    0.80191    0.12248    1.000
    N5547    N        0.87455    0.78587    0.14894    1.000
    N5548    N        0.96131    0.79057    0.18849    1.000
    N5549    N        0.92329    0.83307    0.22533    1.000
    Si5550   Si       0.79769    0.79941    0.34782    1.000
    Si5551   Si       0.78662    0.80715    0.27002    1.000
    N5552    N        0.78254    0.81922    0.31121    1.000
    N5553    N        0.83396    0.82288    0.34760    1.000
    N5554    N        0.81834    0.77927    0.25812    1.000
    N5555    N        0.74957    0.78870    0.25283    1.000
    N5556    N        0.95182    0.78224    0.26321    1.000
    Si5557   Si       0.92657    0.82046    0.32046    1.000
    Si5558   Si       0.98287    0.81148    0.27647    1.000
    N5559    N        0.93194    0.78028    0.33386    1.000
    N5560    N        0.90098    0.82513    0.28540    1.000
    Si5561   Si       0.91564    0.80159    0.25251    1.000
    Si5562   Si       0.95916    0.78372    0.36683    1.000
    Si5563   Si       0.74534    0.80317    0.40421    1.000
    N5564    N        0.78253    0.81228    0.38633    1.000
    Si5565   Si       0.78479    0.81428    0.46059    1.000
    N5566    N        0.74741    0.79525    0.44523    1.000
    Si5567   Si       0.84970    0.77715    0.47938    1.000
    N5568    N        0.80936    0.77661    0.46150    1.000
    Si5569   Si       0.86824    0.82030    0.37092    1.000
    Si5570   Si       0.91989    0.79099    0.46279    1.000
    N5571    N        0.87161    0.77745    0.38091    1.000
    N5572    N        0.96465    0.82582    0.37933    1.000
    N5573    N        0.92103    0.82419    0.43418    1.000
    Si5574   Si       0.83350    0.80997    0.58991    1.000
    N5575    N        0.84787    0.81332    0.50452    1.000
    N5576    N        0.77622    0.82536    0.50255    1.000
    N5577    N        0.76254    0.80056    0.61548    1.000
    Si5578   Si       0.74265    0.81561    0.52580    1.000
    N5579    N        0.74624    0.78050    0.55201    1.000
    Si5580   Si       0.95352    0.78675    0.57127    1.000
    N5581    N        0.94144    0.82806    0.56018    1.000
    N5582    N        0.91726    0.81153    0.49956    1.000
    N5583    N        0.98624    0.81297    0.50861    1.000
    N5584    N        0.87356    0.82877    0.59263    1.000
    Si5585   Si       0.78041    0.79752    0.70195    1.000
    N5586    N        0.79879    0.81678    0.73570    1.000
    N5587    N        0.81985    0.82725    0.62732    1.000
    N5588    N        0.80294    0.77324    0.67196    1.000
    N5589    N        0.92119    0.80093    0.69455    1.000
    Si5590   Si       0.96941    0.78055    0.62927    1.000
    Si5591   Si       0.96480    0.80583    0.69603    1.000
    N5592    N        0.97703    0.81517    0.65467    1.000
    N5593    N        0.78062    0.80491    0.80166    1.000
    Si5594   Si       0.81445    0.80493    0.77338    1.000
    Si5595   Si       0.74701    0.78058    0.79530    1.000
    N5596    N        0.84908    0.82587    0.78524    1.000
    N5597    N        0.75366    0.83106    0.85408    1.000
    Si5598   Si       0.92064    0.78704    0.81608    1.000
    N5599    N        0.92118    0.80523    0.85662    1.000
    N5600    N        0.91840    0.82312    0.79001    1.000
    Si5601   Si       0.88598    0.82005    0.76148    1.000
    N5602    N        0.88666    0.77918    0.75001    1.000
    N5603    N        0.98680    0.83051    0.78090    1.000
    Si5604   Si       0.76549    0.77842    0.92594    1.000
    N5605    N        0.80375    0.80032    0.93558    1.000
    Si5606   Si       0.84387    0.79533    0.92221    1.000
    N5607    N        0.74265    0.81536    0.93394    1.000
    Si5608   Si       0.85971    0.78031    0.99496    1.000
    N5609    N        0.77070    0.81373    0.99634    1.000
    Si5610   Si       0.93482    0.78867    0.89381    1.000
    N5611    N        0.92982    0.81289    0.93038    1.000
    N5612    N        0.96148    0.77621    0.98760    1.000
    Si5613   Si       0.95992    0.81272    0.96318    1.000
    N5614    N        0.82575    0.86288    0.04553    1.000
    Si5615   Si       0.84792    0.84486    0.07954    1.000
    Si5616   Si       0.84283    0.85603    0.00633    1.000
    Si5617   Si       0.74941    0.87573    0.10385    1.000
    N5618    N        0.84209    0.84383    0.12313    1.000
    N5619    N        0.95566    0.87929    0.05974    1.000
    N5620    N        0.87921    0.87498    0.08015    1.000
    Si5621   Si       0.96007    0.84480    0.03394    1.000
    Si5622   Si       0.92096    0.89040    0.08322    1.000
    N5623    N        0.77643    0.83737    0.12298    1.000
    Si5624   Si       0.80588    0.86902    0.13161    1.000
    N5625    N        0.80202    0.87181    0.17741    1.000
    Si5626   Si       0.80339    0.83805    0.20331    1.000
    Si5627   Si       0.94765    0.88957    0.16094    1.000
    Si5628   Si       0.89829    0.86655    0.20925    1.000
    N5629    N        0.96858    0.85077    0.16985    1.000
    N5630    N        0.92067    0.88938    0.12652    1.000
    N5631    N        0.88127    0.85927    0.16988    1.000
    Si5632   Si       0.87583    0.87901    0.13001    1.000
    N5633    N        0.87777    0.88125    0.24426    1.000
    N5634    N        0.83729    0.86345    0.29437    1.000
    Si5635   Si       0.80561    0.85412    0.32633    1.000
    Si5636   Si       0.80447    0.87570    0.26749    1.000
    N5637    N        0.78153    0.88685    0.30520    1.000
    N5638    N        0.80071    0.87526    0.36952    1.000
    N5639    N        0.79248    0.84248    0.24513    1.000
    Si5640   Si       0.87810    0.86314    0.28425    1.000
    N5641    N        0.90188    0.84032    0.35155    1.000
    Si5642   Si       0.91368    0.88470    0.35341    1.000
    Si5643   Si       0.98367    0.85120    0.35027    1.000
    N5644    N        0.95667    0.88563    0.36242    1.000
    N5645    N        0.90632    0.88840    0.30980    1.000
    N5646    N        0.96985    0.83202    0.31409    1.000
    N5647    N        0.79180    0.85192    0.43967    1.000
    Si5648   Si       0.80847    0.84615    0.39955    1.000
    N5649    N        0.85164    0.83750    0.40674    1.000
    Si5650   Si       0.94601    0.84969    0.40964    1.000
    N5651    N        0.90808    0.87689    0.40495    1.000
    N5652    N        0.97176    0.87940    0.42995    1.000
    N5653    N        0.87719    0.86157    0.47017    1.000
    Si5654   Si       0.88462    0.84947    0.43071    1.000
    Si5655   Si       0.79807    0.87291    0.58520    1.000
    N5656    N        0.82630    0.88013    0.51223    1.000
    Si5657   Si       0.81426    0.83762    0.52066    1.000
    N5658    N        0.81081    0.83535    0.56377    1.000
    N5659    N        0.83693    0.88733    0.60172    1.000
    N5660    N        0.77206    0.87028    0.62006    1.000
    Si5661   Si       0.90859    0.85249    0.57583    1.000
    N5662    N        0.89781    0.86553    0.53634    1.000
    Si5663   Si       0.88287    0.83743    0.50529    1.000
    N5664    N        0.91678    0.88479    0.60336    1.000
    Si5665   Si       0.94988    0.83472    0.51624    1.000
    N5666    N        0.94890    0.87402    0.49633    1.000
    Si5667   Si       0.85386    0.85349    0.62266    1.000
    Si5668   Si       0.77940    0.83264    0.64044    1.000
    N5669    N        0.74991    0.87677    0.73387    1.000
    Si5670   Si       0.79144    0.86064    0.74010    1.000
    N5671    N        0.82386    0.88567    0.72131    1.000
    N5672    N        0.76648    0.83270    0.68026    1.000
    N5673    N        0.93131    0.87339    0.67677    1.000
    N5674    N        0.97491    0.84245    0.71905    1.000
    Si5675   Si       0.86456    0.88574    0.73636    1.000
    N5676    N        0.87669    0.85807    0.65663    1.000
    N5677    N        0.88235    0.84644    0.72912    1.000
    Si5678   Si       0.96921    0.87796    0.69427    1.000
    Si5679   Si       0.90298    0.84091    0.68851    1.000
    Si5680   Si       0.90608    0.88901    0.64525    1.000
    N5681    N        0.81834    0.85745    0.83864    1.000
    Si5682   Si       0.85078    0.86029    0.81070    1.000
    N5683    N        0.79352    0.87331    0.78313    1.000
    Si5684   Si       0.78128    0.84705    0.82016    1.000
    Si5685   Si       0.80132    0.88640    0.86439    1.000
    N5686    N        0.76167    0.89141    0.84130    1.000
    Si5687   Si       0.94819    0.85375    0.78682    1.000
    Si5688   Si       0.91945    0.84940    0.84938    1.000
    N5689    N        0.88757    0.87089    0.83099    1.000
    N5690    N        0.95587    0.86483    0.82827    1.000
    N5691    N        0.92656    0.89050    0.77532    1.000
    N5692    N        0.82026    0.85158    0.97062    1.000
    N5693    N        0.75933    0.87255    0.95955    1.000
    Si5694   Si       0.82936    0.86364    0.92935    1.000
    N5695    N        0.79551    0.86710    0.90338    1.000
    Si5696   Si       0.75840    0.88523    0.91780    1.000
    N5697    N        0.86143    0.83539    0.91824    1.000
    Si5698   Si       0.77825    0.83183    0.95705    1.000
    Si5699   Si       0.90198    0.84653    0.92307    1.000
    N5700    N        0.92351    0.86632    0.88974    1.000
    N5701    N        0.97262    0.88740    0.93516    1.000
    N5702    N        0.95113    0.84650    0.98944    1.000
    Si5703   Si       0.94591    0.88464    0.96787    1.000
    N5704    N        0.90439    0.88211    0.95067    1.000
    N5705    N        0.83608    0.93137    0.05373    1.000
    Si5706   Si       0.80269    0.90167    0.05398    1.000
    N5707    N        0.77244    0.90855    0.02535    1.000
    N5708    N        0.78971    0.89097    0.09211    1.000
    N5709    N        0.99205    0.93039    0.08142    1.000
    N5710    N        0.86791    0.89545    0.00570    1.000
    Si5711   Si       0.87068    0.90656    0.04785    1.000
    N5712    N        0.90631    0.92701    0.06282    1.000
    Si5713   Si       0.97410    0.91400    0.03830    1.000
    N5714    N        0.94687    0.91370    0.99939    1.000
    N5715    N        0.84349    0.90799    0.13013    1.000
    Si5716   Si       0.77199    0.90347    0.17926    1.000
    N5717    N        0.79474    0.93877    0.16878    1.000
    N5718    N        0.75204    0.90161    0.21911    1.000
    N5719    N        0.74809    0.89661    0.14483    1.000
    Si5720   Si       0.77297    0.93313    0.24314    1.000
    Si5721   Si       0.82603    0.94509    0.13927    1.000
    Si5722   Si       0.92219    0.93453    0.21824    1.000
    N5723    N        0.92876    0.89665    0.19935    1.000
    N5724    N        0.97849    0.91894    0.15242    1.000
    N5725    N        0.87854    0.94060    0.21779    1.000
    Si5726   Si       0.77810    0.92929    0.31383    1.000
    N5727    N        0.76247    0.93669    0.35582    1.000
    N5728    N        0.76235    0.95127    0.28168    1.000
    N5729    N        0.81317    0.91513    0.24766    1.000
    Si5730   Si       0.85642    0.91952    0.24717    1.000
    N5731    N        0.86866    0.93745    0.28438    1.000
    Si5732   Si       0.90988    0.92793    0.29343    1.000
    N5733    N        0.89392    0.92602    0.36486    1.000
    N5734    N        0.93484    0.93623    0.25867    1.000
    Si5735   Si       0.85484    0.89680    0.48364    1.000
    N5736    N        0.76937    0.90866    0.48907    1.000
    N5737    N        0.82654    0.91070    0.45281    1.000
    Si5738   Si       0.78112    0.91132    0.38554    1.000
    N5739    N        0.75849    0.90841    0.42151    1.000
    N5740    N        0.81536    0.93898    0.39187    1.000
    Si5741   Si       0.78651    0.89398    0.45226    1.000
    Si5742   Si       0.98345    0.89580    0.46994    1.000
    Si5743   Si       0.89881    0.91910    0.40724    1.000
    N5744    N        0.97120    0.93544    0.48643    1.000
    N5745    N        0.87671    0.94735    0.43472    1.000
    N5746    N        0.89128    0.92009    0.49406    1.000
    Si5747   Si       0.96690    0.90824    0.39789    1.000
    N5748    N        0.93608    0.93610    0.41267    1.000
    Si5749   Si       0.79737    0.91050    0.52554    1.000
    Si5750   Si       0.85366    0.92767    0.60560    1.000
    N5751    N        0.82223    0.94406    0.53963    1.000
    N5752    N        0.77169    0.89546    0.55770    1.000
    N5753    N        0.81783    0.94988    0.61426    1.000
    Si5754   Si       0.97140    0.94490    0.52823    1.000
    Si5755   Si       0.91847    0.89734    0.51765    1.000
    N5756    N        0.87844    0.93636    0.57144    1.000
    N5757    N        0.94028    0.92210    0.54584    1.000
    Si5758   Si       0.92016    0.92616    0.58375    1.000
    Si5759   Si       0.81375    0.92818    0.70839    1.000
    N5760    N        0.77982    0.93038    0.68214    1.000
    N5761    N        0.74260    0.93801    0.63195    1.000
    N5762    N        0.88875    0.91982    0.72486    1.000
    N5763    N        0.88493    0.92713    0.63868    1.000
    Si5764   Si       0.93120    0.91843    0.74152    1.000
    N5765    N        0.96755    0.91218    0.71929    1.000
    Si5766   Si       0.76113    0.93068    0.82285    1.000
    Si5767   Si       0.81757    0.90984    0.77911    1.000
    N5768    N        0.80111    0.93893    0.81034    1.000
    N5769    N        0.85807    0.89082    0.77982    1.000
    N5770    N        0.80713    0.94066    0.75001    1.000
    N5771    N        0.74136    0.92955    0.78620    1.000
    N5772    N        0.82406    0.92164    0.87350    1.000
    Si5773   Si       0.89480    0.90847    0.80481    1.000
    N5774    N        0.92953    0.93193    0.82475    1.000
    Si5775   Si       0.96548    0.90632    0.82166    1.000
    N5776    N        0.97773    0.91337    0.86267    1.000
    Si5777   Si       0.94585    0.95008    0.86483    1.000
    N5778    N        0.86867    0.94396    0.81826    1.000
    N5779    N        0.98947    0.93047    0.79300    1.000
    N5780    N        0.77411    0.92661    0.91317    1.000
    N5781    N        0.84080    0.90306    0.93916    1.000
    Si5782   Si       0.81765    0.93246    0.91536    1.000
    Si5783   Si       0.74785    0.89476    0.99440    1.000
    N5784    N        0.92444    0.93279    0.89905    1.000
    Si5785   Si       0.87445    0.91048    0.96505    1.000
    Si5786   Si       0.95049    0.89743    0.89720    1.000
    Si5787   Si       0.83199    0.97064    0.07041    1.000
    N5788    N        0.80906    0.96932    0.10698    1.000
    N5789    N        0.77441    0.97359    0.05267    1.000
    Si5790   Si       0.79579    0.00148    0.02141    1.000
    Si5791   Si       0.77098    0.99083    0.09249    1.000
    N5792    N        0.82663    0.98419    0.99700    1.000
    Si5793   Si       0.74991    0.95314    0.02045    1.000
    N5794    N        0.76262    0.98885    0.99373    1.000
    Si5795   Si       0.98366    0.97003    0.07074    1.000
    N5796    N        0.98242    0.95913    0.02586    1.000
    N5797    N        0.87386    0.98440    0.08631    1.000
    Si5798   Si       0.90838    0.97086    0.06428    1.000
    N5799    N        0.91696    0.97791    0.02145    1.000
    N5800    N        0.94530    0.98432    0.08437    1.000
    Si5801   Si       0.94803    0.95694    0.99905    1.000
    N5802    N        0.82294    0.98669    0.21823    1.000
    N5803    N        0.76085    0.96665    0.21725    1.000
    Si5804   Si       0.79068    0.97782    0.18962    1.000
    N5805    N        0.85858    0.97015    0.15718    1.000
    Si5806   Si       0.85945    0.97683    0.20062    1.000
    N5807    N        0.79475    0.00969    0.16204    1.000
    Si5808   Si       0.97815    0.95567    0.17407    1.000
    N5809    N        0.98184    0.99008    0.14584    1.000
    N5810    N        0.93998    0.96519    0.19641    1.000
    Si5811   Si       0.92558    0.00508    0.18614    1.000
    Si5812   Si       0.87526    0.99794    0.12754    1.000
    Si5813   Si       0.98600    0.00326    0.22157    1.000
    N5814    N        0.91565    0.00822    0.14400    1.000
    Si5815   Si       0.75237    0.99390    0.28755    1.000
    Si5816   Si       0.84920    0.96896    0.30616    1.000
    Si5817   Si       0.79862    0.96505    0.36302    1.000
    N5818    N        0.81208    0.95448    0.32347    1.000
    N5819    N        0.85081    0.00417    0.28085    1.000
    N5820    N        0.74131    0.99407    0.33051    1.000
    N5821    N        0.87229    0.99071    0.33727    1.000
    Si5822   Si       0.90743    0.96797    0.35194    1.000
    Si5823   Si       0.96076    0.96423    0.28670    1.000
    N5824    N        0.93117    0.95757    0.31756    1.000
    N5825    N        0.96962    0.99924    0.26213    1.000
    N5826    N        0.75428    0.98888    0.45078    1.000
    N5827    N        0.82747    0.98966    0.43833    1.000
    N5828    N        0.78945    0.00518    0.37680    1.000
    Si5829   Si       0.83423    0.94791    0.43068    1.000
    N5830    N        0.92526    0.98987    0.45800    1.000
    Si5831   Si       0.94162    0.97770    0.41842    1.000
    N5832    N        0.93071    0.99232    0.37800    1.000
    Si5833   Si       0.97087    0.98256    0.47509    1.000
    N5834    N        0.98247    0.97484    0.43176    1.000
    Si5835   Si       0.89621    0.95869    0.47110    1.000
    N5836    N        0.77088    0.98791    0.57301    1.000
    Si5837   Si       0.80765    0.96655    0.57621    1.000
    N5838    N        0.83476    0.00076    0.56902    1.000
    Si5839   Si       0.86446    0.96401    0.54023    1.000
    N5840    N        0.89696    0.99740    0.55422    1.000
    N5841    N        0.95565    0.98486    0.51910    1.000
    Si5842   Si       0.96198    0.99165    0.60814    1.000
    N5843    N        0.93634    0.95678    0.60955    1.000
    N5844    N        0.88245    0.99923    0.62095    1.000
    N5845    N        0.86653    0.97946    0.49849    1.000
    Si5846   Si       0.82177    0.99656    0.68077    1.000
    N5847    N        0.83798    0.95681    0.68890    1.000
    N5848    N        0.78325    0.99106    0.65966    1.000
    Si5849   Si       0.78449    0.95189    0.64288    1.000
    Si5850   Si       0.74363    0.00891    0.66688    1.000
    N5851    N        0.96399    0.00673    0.65162    1.000
    N5852    N        0.90765    0.97634    0.67926    1.000
    N5853    N        0.87497    0.98854    0.73644    1.000
    Si5854   Si       0.87824    0.95841    0.70543    1.000
    Si5855   Si       0.90267    0.96634    0.63814    1.000
    Si5856   Si       0.79489    0.96972    0.77833    1.000
    N5857    N        0.82438    0.98998    0.85464    1.000
    N5858    N        0.75811    0.99032    0.77682    1.000
    N5859    N        0.82664    0.99852    0.78737    1.000
    Si5860   Si       0.83116    0.94975    0.83949    1.000
    N5861    N        0.93065    0.98939    0.84851    1.000
    Si5862   Si       0.90286    0.97035    0.81931    1.000
    Si5863   Si       0.97995    0.96805    0.77010    1.000
    N5864    N        0.93959    0.96076    0.75578    1.000
    Si5865   Si       0.91608    0.99653    0.75085    1.000
    N5866    N        0.90567    0.00295    0.79304    1.000
    N5867    N        0.97810    0.00869    0.79233    1.000
    Si5868   Si       0.81584    0.00053    0.89568    1.000
    N5869    N        0.83173    0.97178    0.92607    1.000
    N5870    N        0.77417    0.99570    0.90424    1.000
    Si5871   Si       0.85372    0.98350    0.96246    1.000
    Si5872   Si       0.74779    0.96040    0.89551    1.000
    N5873    N        0.88464    0.95157    0.96023    1.000
    Si5874   Si       0.94863    0.01012    0.88701    1.000
    N5875    N        0.91245    0.00123    0.91167    1.000
    N5876    N        0.97584    0.97379    0.88870    1.000
    Si5877   Si       0.98761    0.98711    0.94343    1.000
    Si5878   Si       0.91743    0.96226    0.93078    1.000
    N5879    N        0.95253    0.96490    0.95769    1.000
