# CIF file generated by openbabel 3.1.1, see https://openbabel.org
data_I
_chemical_name_common '3.01-99.aims'
_cell_length_a 39.8925
_cell_length_b 39.8925
_cell_length_c 39.8925
_cell_angle_alpha 90
_cell_angle_beta 90
_cell_angle_gamma 90
loop_
    _atom_site_label
    _atom_site_type_symbol
    _atom_site_fract_x
    _atom_site_fract_y
    _atom_site_fract_z
    _atom_site_occupancy
    N0       N        0.02939    0.04669    0.04812    1.000
    N1       N        0.09623    0.02515    0.06712    1.000
    Si2      Si       0.07191    0.05793    0.04652    1.000
    N3       N        0.08411    0.06374    0.00448    1.000
    Si4      Si       0.11448    0.02946    0.10625    1.000
    N5       N        0.22192    0.03036    0.07146    1.000
    N6       N        0.16862    0.02346    0.03012    1.000
    N7       N        0.15797    0.01472    0.10416    1.000
    Si8      Si       0.23675    0.05759    0.10512    1.000
    Si9      Si       0.18807    0.06260    0.03180    1.000
    Si10     Si       0.07481    0.04510    0.17098    1.000
    N11      N        0.08689    0.02095    0.20623    1.000
    N12      N        0.08476    0.01929    0.13766    1.000
    Si13     Si       0.99745    0.04833    0.15892    1.000
    N14      N        0.03622    0.06291    0.16547    1.000
    N15      N        0.14337    0.04162    0.23865    1.000
    N16      N        0.21689    0.01848    0.23287    1.000
    Si17     Si       0.13073    0.01882    0.20432    1.000
    Si18     Si       0.17859    0.01195    0.14254    1.000
    N19      N        0.15140    0.03598    0.16850    1.000
    N20      N        0.22173    0.03052    0.13928    1.000
    Si21     Si       0.18382    0.00852    0.06869    1.000
    Si22     Si       0.08194    0.04553    0.31196    1.000
    N23      N        0.08071    0.04583    0.26852    1.000
    N24      N        0.03259    0.03917    0.31060    1.000
    N25      N        0.07802    0.06191    0.35228    1.000
    N26      N        0.23072    0.05293    0.34047    1.000
    Si27     Si       0.18960    0.04827    0.32477    1.000
    Si28     Si       0.18115    0.03017    0.25437    1.000
    N29      N        0.19351    0.06264    0.28328    1.000
    N30      N        0.17209    0.01324    0.34203    1.000
    N31      N        0.12325    0.07082    0.30509    1.000
    Si32     Si       0.11788    0.06906    0.26207    1.000
    N33      N        0.19515    0.05660    0.47678    1.000
    N34      N        0.03744    0.01535    0.46237    1.000
    N35      N        0.10607    0.01790    0.45602    1.000
    Si36     Si       0.07320    0.02561    0.37873    1.000
    N37      N        0.05984    0.05099    0.41182    1.000
    Si38     Si       0.07019    0.04063    0.45350    1.000
    Si39     Si       0.23269    0.01805    0.48157    1.000
    N40      N        0.17274    0.02060    0.41809    1.000
    Si41     Si       0.17924    0.06016    0.43422    1.000
    Si42     Si       0.00469    0.07316    0.30306    1.000
    Si43     Si       0.08392    0.03399    0.56217    1.000
    N44      N        0.05164    0.02982    0.58798    1.000
    Si45     Si       0.02041    0.05770    0.59787    1.000
    N46      N        0.07405    0.01315    0.52314    1.000
    Si47     Si       0.10960    0.01011    0.49791    1.000
    N48      N        0.12255    0.01876    0.57748    1.000
    Si49     Si       0.20625    0.02353    0.58449    1.000
    N50      N        0.13549    0.04304    0.50861    1.000
    Si51     Si       0.17707    0.03099    0.50672    1.000
    N52      N        0.18201    0.02029    0.54898    1.000
    N53      N        0.22823    0.06112    0.58363    1.000
    Si54     Si       0.13729    0.02410    0.61911    1.000
    N55      N        0.18068    0.02718    0.61916    1.000
    N56      N        0.07122    0.02278    0.67394    1.000
    Si57     Si       0.09961    0.05618    0.67701    1.000
    Si58     Si       0.03555    0.03138    0.69943    1.000
    N59      N        0.99964    0.04733    0.67801    1.000
    N60      N        0.05036    0.05545    0.73593    1.000
    N61      N        0.24011    0.06494    0.71821    1.000
    N62      N        0.12395    0.05884    0.64176    1.000
    Si63     Si       0.20489    0.03093    0.65573    1.000
    N64      N        0.18065    0.03938    0.69056    1.000
    Si65     Si       0.15574    0.03092    0.72504    1.000
    N66      N        0.11812    0.04832    0.71627    1.000
    Si67     Si       0.02667    0.05476    0.77370    1.000
    N68      N        0.00094    0.03779    0.84925    1.000
    N69      N        0.10350    0.03319    0.85359    1.000
    Si70     Si       0.09311    0.05980    0.81970    1.000
    N71      N        0.02253    0.01293    0.78646    1.000
    N72      N        0.10999    0.03960    0.78458    1.000
    Si73     Si       0.09183    0.06134    0.74998    1.000
    Si74     Si       0.17089    0.02096    0.93623    1.000
    Si75     Si       0.14798    0.03676    0.86384    1.000
    N76      N        0.17669    0.04080    0.76299    1.000
    N77      N        0.16135    0.02902    0.82296    1.000
    N78      N        0.23060    0.02113    0.86309    1.000
    Si79     Si       0.21080    0.01599    0.77054    1.000
    Si80     Si       0.23429    0.05170    0.82948    1.000
    Si81     Si       0.14573    0.00857    0.78427    1.000
    Si82     Si       0.02828    0.05285    0.88178    1.000
    N83      N        0.04988    0.01313    0.89130    1.000
    N84      N        0.00380    0.06440    0.91561    1.000
    N85      N        0.15487    0.00857    0.89704    1.000
    N86      N        0.14309    0.03670    0.96647    1.000
    N87      N        0.20494    0.04581    0.92410    1.000
    Si88     Si       0.17074    0.06613    0.80018    1.000
    N89      N        0.08401    0.09525    0.06398    1.000
    Si90     Si       0.09105    0.10123    0.10604    1.000
    N91      N        0.01218    0.11251    0.05201    1.000
    Si92     Si       0.99231    0.07254    0.04950    1.000
    Si93     Si       0.02789    0.13105    0.09117    1.000
    Si94     Si       0.15662    0.12226    0.03137    1.000
    N95      N        0.22912    0.10064    0.10851    1.000
    N96      N        0.22090    0.08949    0.03607    1.000
    N97      N        0.15218    0.08245    0.01754    1.000
    Si98     Si       0.21778    0.11609    0.06962    1.000
    N99      N        0.17415    0.11814    0.07237    1.000
    N100     N        0.11959    0.07137    0.11646    1.000
    N101     N        0.05236    0.11402    0.12211    1.000
    Si102    Si       0.04787    0.10872    0.16778    1.000
    Si103    Si       0.08872    0.11096    0.21112    1.000
    N104     N        0.09990    0.08015    0.18011    1.000
    N105     N        0.04678    0.10263    0.21943    1.000
    Si106    Si       0.00980    0.11312    0.23927    1.000
    N107     N        0.16317    0.10855    0.15415    1.000
    Si108    Si       0.13681    0.07519    0.15655    1.000
    N109     N        0.18612    0.12111    0.23465    1.000
    N110     N        0.11805    0.10941    0.24363    1.000
    N111     N        0.01988    0.10722    0.28211    1.000
    Si112    Si       0.07560    0.10290    0.36129    1.000
    N113     N        0.03693    0.11784    0.34730    1.000
    N114     N        0.10869    0.12191    0.34177    1.000
    Si115    Si       0.00161    0.10813    0.36988    1.000
    N116     N        0.98598    0.07839    0.34134    1.000
    Si117    Si       0.14411    0.10283    0.32562    1.000
    Si118    Si       0.21289    0.09777    0.26322    1.000
    N119     N        0.17482    0.08443    0.34861    1.000
    N120     N        0.23214    0.12737    0.35962    1.000
    Si121    Si       0.04664    0.09037    0.42433    1.000
    N122     N        0.07455    0.11550    0.40299    1.000
    N123     N        0.06107    0.08335    0.46471    1.000
    N124     N        0.00711    0.09050    0.40842    1.000
    Si125    Si       0.07309    0.11760    0.48634    1.000
    N126     N        0.11679    0.11531    0.49205    1.000
    N127     N        0.14113    0.08043    0.43382    1.000
    Si128    Si       0.21316    0.09654    0.49106    1.000
    N129     N        0.20898    0.08594    0.41310    1.000
    Si130    Si       0.19387    0.11089    0.37828    1.000
    N131     N        0.18333    0.11936    0.47020    1.000
    Si132    Si       0.14212    0.11638    0.45672    1.000
    N133     N        0.23914    0.11193    0.29730    1.000
    Si134    Si       0.05662    0.10564    0.55717    1.000
    N135     N        0.01945    0.08373    0.56233    1.000
    N136     N        0.08765    0.07705    0.54690    1.000
    N137     N        0.15376    0.10896    0.54065    1.000
    N138     N        0.22462    0.10429    0.53225    1.000
    Si139    Si       0.12343    0.08346    0.52367    1.000
    N140     N        0.19148    0.11708    0.60048    1.000
    Si141    Si       0.19172    0.11861    0.55837    1.000
    Si142    Si       0.22605    0.09356    0.61443    1.000
    N143     N        0.12041    0.12832    0.61097    1.000
    N144     N        0.02446    0.08954    0.63014    1.000
    N145     N        0.09574    0.09947    0.68036    1.000
    N146     N        0.99695    0.12110    0.69012    1.000
    Si147    Si       0.99639    0.08729    0.66358    1.000
    Si148    Si       0.09469    0.12349    0.71463    1.000
    Si149    Si       0.20310    0.07785    0.69709    1.000
    Si150    Si       0.12353    0.10316    0.64665    1.000
    N151     N        0.21593    0.07607    0.65481    1.000
    N152     N        0.18229    0.10966    0.71581    1.000
    Si153    Si       0.05103    0.10986    0.83109    1.000
    N154     N        0.09732    0.10387    0.75363    1.000
    N155     N        0.05434    0.07161    0.80404    1.000
    N156     N        0.00915    0.12404    0.83503    1.000
    N157     N        0.10946    0.09919    0.83021    1.000
    N158     N        0.05509    0.08485    0.86862    1.000
    Si159    Si       0.11391    0.12190    0.79150    1.000
    N160     N        0.15734    0.10501    0.78751    1.000
    N161     N        0.20218    0.08003    0.82575    1.000
    Si162    Si       0.13425    0.10916    0.86231    1.000
    N163     N        0.22757    0.10732    0.76809    1.000
    Si164    Si       0.18609    0.11740    0.75755    1.000
    Si165    Si       0.20404    0.12159    0.84441    1.000
    N166     N        0.24098    0.10043    0.96933    1.000
    Si167    Si       0.07069    0.11366    0.89653    1.000
    Si168    Si       0.01308    0.10368    0.93484    1.000
    Si169    Si       0.06979    0.09954    0.97475    1.000
    N170     N        0.05532    0.10337    0.93495    1.000
    N171     N        0.00944    0.10819    0.97926    1.000
    N172     N        0.11362    0.11720    0.89825    1.000
    N173     N        0.11209    0.10517    0.96512    1.000
    N174     N        0.22312    0.10604    0.88205    1.000
    N175     N        0.17518    0.10964    0.93740    1.000
    N176     N        0.16103    0.07566    0.87767    1.000
    Si177    Si       0.19170    0.08450    0.90552    1.000
    Si178    Si       0.12491    0.06940    0.98707    1.000
    N179     N        0.06017    0.15813    0.07314    1.000
    Si180    Si       0.09091    0.17533    0.10243    1.000
    N181     N        0.01251    0.17224    0.01449    1.000
    Si182    Si       0.08294    0.13435    0.04295    1.000
    Si183    Si       0.02009    0.13096    0.01462    1.000
    N184     N        0.06360    0.12758    0.00655    1.000
    N185     N        0.11685    0.13898    0.10810    1.000
    N186     N        0.12412    0.15102    0.03531    1.000
    N187     N        0.23180    0.15730    0.06365    1.000
    N188     N        0.18978    0.13817    0.00291    1.000
    Si189    Si       0.21129    0.16961    0.02316    1.000
    Si190    Si       0.20169    0.18165    0.08439    1.000
    Si191    Si       0.15815    0.12869    0.11510    1.000
    N192     N        0.00049    0.15453    0.23470    1.000
    N193     N        0.07814    0.14345    0.18146    1.000
    Si194    Si       0.00404    0.16861    0.19514    1.000
    N195     N        0.01331    0.13351    0.17010    1.000
    Si196    Si       0.07059    0.18612    0.17444    1.000
    N197     N        0.17977    0.16633    0.11877    1.000
    N198     N        0.16405    0.16830    0.18459    1.000
    N199     N        0.98973    0.14040    0.10940    1.000
    Si200    Si       0.18397    0.12707    0.18923    1.000
    N201     N        0.22625    0.12520    0.17691    1.000
    N202     N        0.06059    0.16647    0.31016    1.000
    Si203    Si       0.09611    0.16300    0.33634    1.000
    Si204    Si       0.02612    0.13901    0.31011    1.000
    Si205    Si       0.16670    0.16345    0.32888    1.000
    N206     N        0.14203    0.17687    0.25270    1.000
    Si207    Si       0.15211    0.13484    0.25704    1.000
    N208     N        0.99096    0.16364    0.30683    1.000
    Si209    Si       0.23712    0.17044    0.34386    1.000
    N210     N        0.16313    0.13219    0.29878    1.000
    N211     N        0.23110    0.16120    0.49276    1.000
    N212     N        0.09456    0.17540    0.37841    1.000
    Si213    Si       0.09017    0.15483    0.41977    1.000
    N214     N        0.06785    0.15103    0.45847    1.000
    Si215    Si       0.19345    0.16316    0.47068    1.000
    N216     N        0.19734    0.17354    0.42855    1.000
    N217     N        0.13223    0.14808    0.42838    1.000
    N218     N        0.15723    0.17361    0.49455    1.000
    N219     N        0.16986    0.14862    0.36965    1.000
    Si220    Si       0.16084    0.17141    0.40451    1.000
    N221     N        0.01490    0.18358    0.48499    1.000
    Si222    Si       0.09466    0.15490    0.58808    1.000
    Si223    Si       0.01121    0.14960    0.51705    1.000
    N224     N        0.05612    0.13516    0.58757    1.000
    N225     N        0.99718    0.17958    0.54593    1.000
    N226     N        0.11071    0.15954    0.55018    1.000
    Si227    Si       0.02760    0.13064    0.61948    1.000
    N228     N        0.04824    0.12939    0.52035    1.000
    Si229    Si       0.98880    0.18079    0.58808    1.000
    N230     N        0.18469    0.17907    0.69886    1.000
    N231     N        0.19680    0.16149    0.55177    1.000
    Si232    Si       0.13572    0.14520    0.51844    1.000
    Si233    Si       0.16053    0.14286    0.61813    1.000
    N234     N        0.99882    0.18676    0.70473    1.000
    Si235    Si       0.10853    0.18638    0.74830    1.000
    N236     N        0.04138    0.15692    0.65436    1.000
    Si237    Si       0.02375    0.15371    0.69360    1.000
    N238     N        0.05633    0.14309    0.72092    1.000
    Si239    Si       0.16168    0.14557    0.69694    1.000
    N240     N        0.12363    0.15589    0.71831    1.000
    N241     N        0.23327    0.18726    0.64196    1.000
    N242     N        0.15831    0.12761    0.65850    1.000
    N243     N        0.00319    0.14493    0.75886    1.000
    Si244    Si       0.04640    0.15163    0.76375    1.000
    N245     N        0.06692    0.14110    0.80159    1.000
    N246     N        0.11126    0.17788    0.85204    1.000
    Si247    Si       0.23315    0.14887    0.78150    1.000
    N248     N        0.12209    0.16563    0.78382    1.000
    N249     N        0.19520    0.15924    0.76260    1.000
    N250     N        0.16559    0.13813    0.85300    1.000
    Si251    Si       0.15383    0.17974    0.85576    1.000
    N252     N        0.23208    0.14765    0.82590    1.000
    Si253    Si       0.16319    0.18188    0.78377    1.000
    N254     N        0.99298    0.13437    0.90879    1.000
    Si255    Si       0.01084    0.14786    0.87132    1.000
    N256     N        0.05356    0.14941    0.87965    1.000
    N257     N        0.21129    0.16562    0.94410    1.000
    Si258    Si       0.20553    0.12746    0.96306    1.000
    N259     N        0.13522    0.17062    0.94239    1.000
    Si260    Si       0.13303    0.12695    0.93655    1.000
    Si261    Si       0.08826    0.18618    0.81006    1.000
    Si262    Si       0.07479    0.18693    0.87395    1.000
    N263     N        0.05163    0.23260    0.03103    1.000
    Si264    Si       0.08926    0.23738    0.00712    1.000
    Si265    Si       0.05685    0.23710    0.11985    1.000
    Si266    Si       0.04187    0.20030    0.00164    1.000
    N267     N        0.11596    0.20464    0.08342    1.000
    N268     N        0.12675    0.23067    0.02575    1.000
    N269     N        0.21738    0.21974    0.09788    1.000
    Si270    Si       0.13725    0.19312    0.04579    1.000
    Si271    Si       0.13002    0.23995    0.10388    1.000
    N272     N        0.18010    0.18949    0.04638    1.000
    N273     N        0.23930    0.19182    0.00117    1.000
    Si274    Si       0.03019    0.23232    0.22794    1.000
    N275     N        0.03450    0.20123    0.19253    1.000
    N276     N        0.10317    0.20627    0.19751    1.000
    N277     N        0.06714    0.19728    0.13188    1.000
    Si278    Si       0.00251    0.23120    0.17025    1.000
    Si279    Si       0.12495    0.23881    0.18006    1.000
    N280     N        0.14577    0.22600    0.14263    1.000
    N281     N        0.16094    0.23211    0.20645    1.000
    N282     N        0.21194    0.21396    0.16475    1.000
    Si283    Si       0.14216    0.19153    0.21223    1.000
    N284     N        0.22748    0.22762    0.22954    1.000
    Si285    Si       0.17330    0.19391    0.15201    1.000
    Si286    Si       0.20333    0.23985    0.19737    1.000
    N287     N        0.09121    0.22171    0.27866    1.000
    Si288    Si       0.05375    0.20508    0.29201    1.000
    N289     N        0.02058    0.20853    0.26426    1.000
    N290     N        0.03817    0.23252    0.32260    1.000
    N291     N        0.09687    0.24411    0.36482    1.000
    Si292    Si       0.13262    0.20580    0.28349    1.000
    Si293    Si       0.18804    0.23435    0.32546    1.000
    N294     N        0.16080    0.23672    0.29128    1.000
    N295     N        0.20023    0.19214    0.32917    1.000
    N296     N        0.08641    0.20356    0.43359    1.000
    Si297    Si       0.10626    0.21406    0.39594    1.000
    N298     N        0.06978    0.22808    0.48726    1.000
    Si299    Si       0.05496    0.19227    0.46466    1.000
    Si300    Si       0.10266    0.23525    0.46030    1.000
    N301     N        0.14941    0.21273    0.40294    1.000
    N302     N        0.22009    0.23787    0.41407    1.000
    Si303    Si       0.23350    0.19480    0.41749    1.000
    N304     N        0.20197    0.22416    0.48377    1.000
    N305     N        0.13006    0.18463    0.32079    1.000
    N306     N        0.02040    0.20365    0.60709    1.000
    Si307    Si       0.00601    0.21482    0.51840    1.000
    N308     N        0.09027    0.19248    0.61272    1.000
    N309     N        0.03212    0.23927    0.54300    1.000
    N310     N        0.15968    0.22110    0.54553    1.000
    N311     N        0.20290    0.23147    0.58965    1.000
    Si312    Si       0.18297    0.19564    0.57484    1.000
    Si313    Si       0.12649    0.21665    0.61839    1.000
    Si314    Si       0.16450    0.21579    0.50294    1.000
    Si315    Si       0.05427    0.19548    0.63450    1.000
    N316     N        0.05047    0.22325    0.66900    1.000
    Si317    Si       0.08883    0.23503    0.68713    1.000
    N318     N        0.10712    0.22308    0.72566    1.000
    Si319    Si       0.01260    0.22904    0.69111    1.000
    N320     N        0.23073    0.21754    0.71260    1.000
    N321     N        0.12319    0.22883    0.66049    1.000
    N322     N        0.19117    0.24015    0.65626    1.000
    Si323    Si       0.20325    0.19820    0.74091    1.000
    Si324    Si       0.21087    0.20632    0.67528    1.000
    Si325    Si       0.02620    0.24099    0.58546    1.000
    Si326    Si       0.14045    0.24768    0.73900    1.000
    N327     N        0.15768    0.18581    0.60942    1.000
    N328     N        0.05689    0.21004    0.84171    1.000
    Si329    Si       0.04179    0.22922    0.76518    1.000
    Si330    Si       0.01543    0.22814    0.86091    1.000
    N331     N        0.00237    0.21158    0.77765    1.000
    N332     N        0.06710    0.19331    0.76557    1.000
    N333     N        0.10699    0.22559    0.80688    1.000
    N334     N        0.99675    0.18666    0.85959    1.000
    N335     N        0.16808    0.19815    0.89351    1.000
    Si336    Si       0.20298    0.22856    0.81726    1.000
    N337     N        0.22367    0.21073    0.78166    1.000
    N338     N        0.17315    0.19775    0.82213    1.000
    N339     N        0.16370    0.21427    0.75463    1.000
    Si340    Si       0.23139    0.20376    0.95734    1.000
    Si341    Si       0.04195    0.22641    0.93197    1.000
    N342     N        0.08320    0.20012    0.98371    1.000
    N343     N        0.07562    0.20326    0.91383    1.000
    N344     N        0.02310    0.22527    0.97098    1.000
    Si345    Si       0.10496    0.20251    0.94418    1.000
    N346     N        0.01053    0.23551    0.90529    1.000
    N347     N        0.12437    0.24353    0.95204    1.000
    N348     N        0.23366    0.23566    0.92519    1.000
    N349     N        0.18639    0.21692    0.96482    1.000
    Si350    Si       0.17596    0.18782    0.93396    1.000
    Si351    Si       0.02972    0.26640    0.04883    1.000
    N352     N        0.02850    0.25402    0.09175    1.000
    Si353    Si       0.00199    0.27832    0.11676    1.000
    N354     N        0.09473    0.25991    0.11863    1.000
    N355     N        0.98978    0.27064    0.03003    1.000
    N356     N        0.11956    0.29979    0.04734    1.000
    N357     N        0.21478    0.29048    0.11301    1.000
    N358     N        0.17181    0.27487    0.00548    1.000
    N359     N        0.22134    0.27971    0.05176    1.000
    Si360    Si       0.14574    0.26782    0.03882    1.000
    Si361    Si       0.20370    0.25845    0.08654    1.000
    Si362    Si       0.21301    0.29202    0.01121    1.000
    N363     N        0.16088    0.25649    0.07844    1.000
    N364     N        0.04284    0.25668    0.15650    1.000
    Si365    Si       0.07952    0.28298    0.15345    1.000
    N366     N        0.10793    0.27910    0.18485    1.000
    N367     N        0.99506    0.25103    0.21067    1.000
    N368     N        0.21014    0.28215    0.18531    1.000
    N369     N        0.07910    0.28814    0.30730    1.000
    Si370    Si       0.08735    0.26549    0.27064    1.000
    Si371    Si       0.06736    0.26085    0.33863    1.000
    Si372    Si       0.00339    0.25727    0.32993    1.000
    N373     N        0.00678    0.29453    0.30708    1.000
    N374     N        0.03753    0.28049    0.36274    1.000
    Si375    Si       0.02841    0.29737    0.26800    1.000
    N376     N        0.98873    0.30351    0.24902    1.000
    N377     N        0.17698    0.25649    0.36023    1.000
    Si378    Si       0.15719    0.27789    0.27666    1.000
    N379     N        0.22327    0.25603    0.30719    1.000
    Si380    Si       0.22415    0.25554    0.26336    1.000
    Si381    Si       0.15508    0.29567    0.35494    1.000
    N382     N        0.12251    0.28264    0.25116    1.000
    N383     N        0.19291    0.28174    0.25246    1.000
    N384     N        0.13727    0.24584    0.48692    1.000
    N385     N        0.17033    0.27973    0.42485    1.000
    Si386    Si       0.99596    0.27478    0.47138    1.000
    N387     N        0.10451    0.26638    0.43085    1.000
    N388     N        0.00273    0.27026    0.42894    1.000
    Si389    Si       0.02272    0.29603    0.40059    1.000
    Si390    Si       0.13350    0.29203    0.44766    1.000
    Si391    Si       0.17942    0.24415    0.40253    1.000
    N392     N        0.05170    0.26645    0.24705    1.000
    N393     N        0.09386    0.27105    0.53632    1.000
    Si394    Si       0.09599    0.27684    0.58076    1.000
    Si395    Si       0.05745    0.26092    0.51570    1.000
    N396     N        0.06014    0.26256    0.60125    1.000
    N397     N        0.13628    0.29738    0.65113    1.000
    N398     N        0.03091    0.28774    0.49372    1.000
    N399     N        0.12980    0.25389    0.59461    1.000
    Si400    Si       0.13223    0.27956    0.51715    1.000
    N401     N        0.18746    0.28984    0.60341    1.000
    N402     N        0.16968    0.28622    0.53789    1.000
    Si403    Si       0.16954    0.25620    0.57174    1.000
    N404     N        0.23622    0.27199    0.52926    1.000
    Si405    Si       0.21235    0.25749    0.62144    1.000
    Si406    Si       0.04718    0.28438    0.71379    1.000
    N407     N        0.08275    0.27811    0.69108    1.000
    N408     N        0.03142    0.24595    0.72700    1.000
    N409     N        0.01786    0.29787    0.68475    1.000
    Si410    Si       0.15358    0.25827    0.66751    1.000
    N411     N        0.22693    0.28497    0.73661    1.000
    Si412    Si       0.19446    0.29834    0.70923    1.000
    N413     N        0.16441    0.26821    0.70795    1.000
    N414     N        0.03988    0.26699    0.85741    1.000
    N415     N        0.05076    0.26172    0.79097    1.000
    N416     N        0.10436    0.28268    0.83138    1.000
    Si417    Si       0.07254    0.25005    0.82793    1.000
    N418     N        0.13363    0.27820    0.76699    1.000
    N419     N        0.17552    0.26412    0.81386    1.000
    Si420    Si       0.13350    0.26018    0.80747    1.000
    N421     N        0.23482    0.29523    0.80211    1.000
    Si422    Si       0.19577    0.30300    0.81893    1.000
    Si423    Si       0.04683    0.29091    0.89367    1.000
    N424     N        0.06241    0.26698    0.92838    1.000
    Si425    Si       0.09676    0.27501    0.95279    1.000
    N426     N        0.08621    0.27710    0.99455    1.000
    Si427    Si       0.99100    0.24796    0.99259    1.000
    Si428    Si       0.16389    0.25255    0.96900    1.000
    N429     N        0.18137    0.28239    0.94268    1.000
    Si430    Si       0.22419    0.27279    0.94358    1.000
    N431     N        0.23978    0.27301    0.98316    1.000
    N432     N        0.23129    0.24529    0.84724    1.000
    Si433    Si       0.02847    0.34807    0.04672    1.000
    N434     N        0.00183    0.34802    0.01233    1.000
    Si435    Si       0.08546    0.30990    0.02278    1.000
    N436     N        0.08999    0.34650    0.00574    1.000
    N437     N        0.04892    0.30649    0.04558    1.000
    N438     N        0.01594    0.35881    0.08573    1.000
    N439     N        0.21036    0.35109    0.08177    1.000
    Si440    Si       0.23089    0.31351    0.07926    1.000
    N441     N        0.22203    0.33570    0.00738    1.000
    N442     N        0.14066    0.35929    0.09638    1.000
    Si443    Si       0.18194    0.35982    0.11260    1.000
    Si444    Si       0.05739    0.35103    0.22980    1.000
    N445     N        0.08127    0.32594    0.14388    1.000
    N446     N        0.09883    0.34333    0.22837    1.000
    Si447    Si       0.04058    0.33751    0.15907    1.000
    N448     N        0.02884    0.33362    0.20045    1.000
    N449     N        0.01225    0.31602    0.13639    1.000
    Si450    Si       0.10891    0.35685    0.12890    1.000
    Si451    Si       0.98847    0.33434    0.21936    1.000
    N452     N        0.22395    0.33972    0.22816    1.000
    Si453    Si       0.21960    0.30770    0.15161    1.000
    N454     N        0.19196    0.34233    0.14966    1.000
    Si455    Si       0.16397    0.35945    0.17923    1.000
    N456     N        0.15769    0.32483    0.20351    1.000
    Si457    Si       0.11933    0.30686    0.21498    1.000
    Si458    Si       0.19617    0.30765    0.21782    1.000
    N459     N        0.04426    0.33751    0.26874    1.000
    Si460    Si       0.09207    0.32484    0.32722    1.000
    N461     N        0.05394    0.34335    0.33867    1.000
    Si462    Si       0.01484    0.32313    0.34234    1.000
    N463     N        0.10672    0.35803    0.30135    1.000
    N464     N        0.99739    0.36012    0.32189    1.000
    N465     N        0.11196    0.30832    0.36106    1.000
    N466     N        0.12672    0.30899    0.48676    1.000
    Si467    Si       0.17517    0.34272    0.30264    1.000
    N468     N        0.21882    0.33053    0.30550    1.000
    N469     N        0.16307    0.35701    0.26453    1.000
    Si470    Si       0.06067    0.35185    0.43968    1.000
    N471     N        0.03016    0.35189    0.47322    1.000
    N472     N        0.06030    0.31634    0.41437    1.000
    N473     N        0.99268    0.32209    0.38077    1.000
    Si474    Si       0.11195    0.34859    0.49343    1.000
    N475     N        0.17859    0.32595    0.37291    1.000
    N476     N        0.12742    0.32615    0.42146    1.000
    N477     N        0.18189    0.35779    0.43625    1.000
    N478     N        0.22610    0.33532    0.49707    1.000
    Si479    Si       0.18909    0.32056    0.41449    1.000
    N480     N        0.23131    0.31187    0.42510    1.000
    N481     N        0.15851    0.30457    0.31111    1.000
    Si482    Si       0.09732    0.30021    0.40117    1.000
    N483     N        0.01398    0.33779    0.54380    1.000
    Si484    Si       0.08709    0.34920    0.60990    1.000
    N485     N        0.08149    0.35161    0.52301    1.000
    N486     N        0.00457    0.32415    0.61430    1.000
    Si487    Si       0.00932    0.32838    0.50234    1.000
    N488     N        0.11064    0.31659    0.59125    1.000
    Si489    Si       0.24003    0.34611    0.66536    1.000
    Si490    Si       0.14958    0.31059    0.61098    1.000
    N491     N        0.21423    0.33709    0.55697    1.000
    Si492    Si       0.20984    0.32928    0.59867    1.000
    N493     N        0.17161    0.34731    0.60947    1.000
    Si494    Si       0.20757    0.30432    0.52574    1.000
    N495     N        0.99770    0.35425    0.67553    1.000
    N496     N        0.10186    0.34589    0.69983    1.000
    Si497    Si       0.09863    0.31324    0.67060    1.000
    Si498    Si       0.02429    0.32778    0.65183    1.000
    N499     N        0.06656    0.32905    0.64435    1.000
    Si500    Si       0.08517    0.34668    0.74186    1.000
    N501     N        0.05679    0.31488    0.74488    1.000
    N502     N        0.22139    0.30652    0.67465    1.000
    N503     N        0.17625    0.33210    0.73063    1.000
    Si504    Si       0.08849    0.32042    0.84188    1.000
    N505     N        0.05574    0.33116    0.81493    1.000
    N506     N        0.99241    0.33968    0.84268    1.000
    Si507    Si       0.04044    0.30318    0.78375    1.000
    N508     N        0.99608    0.30813    0.77553    1.000
    N509     N        0.11806    0.34545    0.76949    1.000
    N510     N        0.12310    0.34583    0.84637    1.000
    Si511    Si       0.14933    0.31700    0.76163    1.000
    N512     N        0.17143    0.33182    0.79860    1.000
    Si513    Si       0.13782    0.35618    0.80686    1.000
    N514     N        0.20270    0.31259    0.85837    1.000
    Si515    Si       0.08875    0.34207    0.91973    1.000
    N516     N        0.07241    0.32303    0.88279    1.000
    N517     N        0.05290    0.35269    0.94134    1.000
    N518     N        0.00634    0.30660    0.90471    1.000
    N519     N        0.11407    0.31185    0.93616    1.000
    Si520    Si       0.21035    0.32745    0.89542    1.000
    Si521    Si       0.15668    0.31866    0.94299    1.000
    N522     N        0.16492    0.34502    0.97576    1.000
    N523     N        0.17148    0.34157    0.90691    1.000
    N524     N        0.23539    0.35437    0.76052    1.000
    N525     N        0.05041    0.38683    0.03766    1.000
    Si526    Si       0.08636    0.38961    0.01421    1.000
    Si527    Si       0.04068    0.38671    0.11056    1.000
    N528     N        0.08240    0.38260    0.10310    1.000
    Si529    Si       0.98974    0.38943    0.00262    1.000
    Si530    Si       0.11883    0.39641    0.08145    1.000
    N531     N        0.11880    0.39946    0.03981    1.000
    Si532    Si       0.22400    0.38077    0.05272    1.000
    N533     N        0.19070    0.38945    0.02467    1.000
    Si534    Si       0.23207    0.41455    0.11865    1.000
    N535     N        0.23207    0.41949    0.07528    1.000
    Si536    Si       0.15716    0.41484    0.02977    1.000
    N537     N        0.18917    0.40099    0.12325    1.000
    N538     N        0.03851    0.38055    0.15239    1.000
    N539     N        0.04734    0.39345    0.22503    1.000
    Si540    Si       0.03396    0.40689    0.18610    1.000
    N541     N        0.13272    0.38090    0.15674    1.000
    Si542    Si       0.14994    0.41704    0.13876    1.000
    N543     N        0.17665    0.39360    0.20562    1.000
    Si544    Si       0.19618    0.37347    0.23853    1.000
    N545     N        0.99062    0.41218    0.18468    1.000
    N546     N        0.99205    0.41789    0.03455    1.000
    N547     N        0.05750    0.40195    0.29714    1.000
    N548     N        0.02197    0.41169    0.36002    1.000
    Si549    Si       0.10291    0.40038    0.30727    1.000
    Si550    Si       0.06651    0.41404    0.25603    1.000
    N551     N        0.10985    0.40910    0.26346    1.000
    N552     N        0.17582    0.37778    0.32615    1.000
    N553     N        0.20971    0.40398    0.26508    1.000
    Si554    Si       0.18697    0.41340    0.30153    1.000
    Si555    Si       0.17043    0.36915    0.36825    1.000
    Si556    Si       0.22731    0.41848    0.36010    1.000
    Si557    Si       0.12036    0.36554    0.26046    1.000
    Si558    Si       0.00400    0.38068    0.45320    1.000
    N559     N        0.03482    0.38130    0.41933    1.000
    N560     N        0.09431    0.36914    0.45697    1.000
    Si561    Si       0.09717    0.41342    0.46280    1.000
    Si562    Si       0.13650    0.36871    0.43112    1.000
    N563     N        0.20270    0.39496    0.38480    1.000
    N564     N        0.13508    0.38558    0.38804    1.000
    N565     N        0.13727    0.41281    0.44545    1.000
    Si566    Si       0.20868    0.39154    0.42889    1.000
    Si567    Si       0.03816    0.36313    0.30170    1.000
    N568     N        0.03018    0.40155    0.53874    1.000
    N569     N        0.06095    0.37389    0.58559    1.000
    Si570    Si       0.04275    0.41337    0.58173    1.000
    N571     N        0.09325    0.42005    0.50678    1.000
    Si572    Si       0.17989    0.41790    0.54962    1.000
    N573     N        0.14324    0.37562    0.50536    1.000
    N574     N        0.21017    0.39956    0.52361    1.000
    N575     N        0.14558    0.39817    0.56758    1.000
    Si576    Si       0.15077    0.38585    0.60936    1.000
    Si577    Si       0.12821    0.40824    0.52878    1.000
    Si578    Si       0.23201    0.36316    0.53049    1.000
    N579     N        0.07333    0.40731    0.67819    1.000
    N580     N        0.01005    0.40322    0.72263    1.000
    Si581    Si       0.05287    0.41049    0.71652    1.000
    Si582    Si       0.10718    0.38115    0.67586    1.000
    Si583    Si       0.18496    0.40336    0.67460    1.000
    Si584    Si       0.20404    0.36509    0.73160    1.000
    N585     N        0.11448    0.37358    0.63331    1.000
    N586     N        0.17700    0.41218    0.63377    1.000
    N587     N        0.14419    0.39922    0.69229    1.000
    N588     N        0.21229    0.37252    0.68647    1.000
    Si589    Si       0.04719    0.36285    0.54569    1.000
    N590     N        0.07427    0.38817    0.74668    1.000
    N591     N        0.04285    0.39693    0.84906    1.000
    N592     N        0.00048    0.37369    0.79026    1.000
    Si593    Si       0.99722    0.40541    0.76316    1.000
    Si594    Si       0.02630    0.36226    0.82511    1.000
    Si595    Si       0.10499    0.41067    0.77182    1.000
    Si596    Si       0.14555    0.42178    0.83838    1.000
    N597     N        0.13808    0.39898    0.79988    1.000
    N598     N        0.16838    0.39410    0.86210    1.000
    Si599    Si       0.21162    0.39502    0.86758    1.000
    N600     N        0.23472    0.38342    0.83302    1.000
    N601     N        0.19310    0.40203    0.74895    1.000
    Si602    Si       0.01200    0.36385    0.94357    1.000
    N603     N        0.01420    0.39992    0.96715    1.000
    Si604    Si       0.02322    0.40784    0.88724    1.000
    N605     N        0.00280    0.37405    0.90105    1.000
    Si606    Si       0.09763    0.41583    0.90291    1.000
    N607     N        0.11346    0.37675    0.90845    1.000
    N608     N        0.08341    0.41694    0.98142    1.000
    N609     N        0.23658    0.36529    0.89488    1.000
    Si610    Si       0.20015    0.36744    0.98792    1.000
    Si611    Si       0.14392    0.36161    0.88182    1.000
    N612     N        0.22073    0.39572    0.95715    1.000
    N613     N        0.05978    0.45417    0.04117    1.000
    Si614    Si       0.01216    0.46475    0.10376    1.000
    N615     N        0.02866    0.42565    0.09618    1.000
    Si616    Si       0.03233    0.42248    0.05303    1.000
    N617     N        0.16394    0.44920    0.16231    1.000
    N618     N        0.12765    0.43429    0.10476    1.000
    Si619    Si       0.21294    0.45452    0.05626    1.000
    N620     N        0.16813    0.44867    0.05524    1.000
    N621     N        0.21917    0.46403    0.01304    1.000
    Si622    Si       0.14167    0.46903    0.08265    1.000
    N623     N        0.99586    0.46749    0.14315    1.000
    N624     N        0.05688    0.44227    0.18045    1.000
    Si625    Si       0.05376    0.47185    0.21039    1.000
    Si626    Si       0.17364    0.43708    0.20242    1.000
    N627     N        0.14244    0.46218    0.22285    1.000
    N628     N        0.21743    0.44509    0.20890    1.000
    Si629    Si       0.06582    0.47928    0.00368    1.000
    N630     N        0.04742    0.46952    0.32126    1.000
    Si631    Si       0.07302    0.47301    0.35626    1.000
    Si632    Si       0.03394    0.42827    0.32295    1.000
    N633     N        0.06197    0.45674    0.24884    1.000
    N634     N        0.12242    0.42774    0.33207    1.000
    Si635    Si       0.12672    0.45083    0.26007    1.000
    N636     N        0.21486    0.43869    0.32319    1.000
    N637     N        0.16170    0.44721    0.28833    1.000
    Si638    Si       0.13579    0.46894    0.32031    1.000
    Si639    Si       0.23081    0.43785    0.24906    1.000
    N640     N        0.22320    0.47703    0.26710    1.000
    N641     N        0.07912    0.43457    0.38048    1.000
    Si642    Si       0.02999    0.45821    0.45478    1.000
    N643     N        0.06630    0.43576    0.44441    1.000
    N644     N        0.01458    0.45287    0.41068    1.000
    N645     N        0.00377    0.42260    0.46359    1.000
    Si646    Si       0.04324    0.42027    0.40119    1.000
    Si647    Si       0.16117    0.44602    0.43641    1.000
    N648     N        0.14821    0.45787    0.39488    1.000
    N649     N        0.23837    0.45348    0.38370    1.000
    Si650    Si       0.12199    0.42693    0.37516    1.000
    N651     N        0.20233    0.43394    0.43821    1.000
    Si652    Si       0.23719    0.45905    0.42736    1.000
    N653     N        0.99331    0.42554    0.30764    1.000
    N654     N        0.06689    0.44600    0.56533    1.000
    Si655    Si       0.05597    0.43533    0.52321    1.000
    N656     N        0.03750    0.46564    0.49995    1.000
    Si657    Si       0.08856    0.47434    0.58917    1.000
    N658     N        0.03223    0.43072    0.62022    1.000
    N659     N        0.20062    0.44600    0.57595    1.000
    N660     N        0.15554    0.44422    0.52450    1.000
    Si661    Si       0.16757    0.47893    0.50448    1.000
    Si662    Si       0.19496    0.44971    0.61913    1.000
    Si663    Si       0.21681    0.47942    0.55316    1.000
    N664     N        0.21131    0.48064    0.51017    1.000
    Si665    Si       0.99258    0.44676    0.62722    1.000
    N666     N        0.09995    0.45527    0.62676    1.000
    Si667    Si       0.06481    0.43697    0.64633    1.000
    N668     N        0.06337    0.45089    0.73279    1.000
    N669     N        0.05389    0.47202    0.67164    1.000
    Si670    Si       0.08424    0.47670    0.70498    1.000
    N671     N        0.19085    0.44394    0.69240    1.000
    Si672    Si       0.22275    0.43398    0.74294    1.000
    Si673    Si       0.23424    0.46667    0.68134    1.000
    N674     N        0.12164    0.46635    0.68873    1.000
    N675     N        0.23435    0.45861    0.63756    1.000
    Si676    Si       0.14850    0.43921    0.71083    1.000
    Si677    Si       0.12655    0.48252    0.64894    1.000
    N678     N        0.01399    0.44260    0.77957    1.000
    Si679    Si       0.05398    0.46000    0.77528    1.000
    N680     N        0.08098    0.43448    0.79737    1.000
    Si681    Si       0.06981    0.42989    0.83942    1.000
    N682     N        0.06094    0.46929    0.85399    1.000
    N683     N        0.10741    0.42332    0.86121    1.000
    N684     N        0.17051    0.44888    0.81457    1.000
    N685     N        0.19787    0.46658    0.75910    1.000
    N686     N        0.12315    0.44230    0.92664    1.000
    Si687    Si       0.16676    0.42528    0.77698    1.000
    Si688    Si       0.19771    0.48201    0.80372    1.000
    Si689    Si       0.04532    0.46535    0.89510    1.000
    N690     N        0.00549    0.44688    0.88577    1.000
    N691     N        0.03714    0.46744    0.97269    1.000
    Si692    Si       0.04825    0.42669    0.95732    1.000
    N693     N        0.05655    0.42746    0.91346    1.000
    N694     N        0.15349    0.43456    0.99192    1.000
    N695     N        0.16128    0.47742    0.87314    1.000
    Si696    Si       0.20529    0.47161    0.87537    1.000
    N697     N        0.21952    0.43425    0.89242    1.000
    Si698    Si       0.11771    0.44195    0.97004    1.000
    Si699    Si       0.18409    0.46662    0.98568    1.000
    Si700    Si       0.15261    0.47249    0.91699    1.000
    N701     N        0.18530    0.45874    0.94279    1.000
    Si702    Si       0.21976    0.43328    0.93660    1.000
    N703     N        0.22442    0.48239    0.84076    1.000
    N704     N        0.13311    0.43661    0.74950    1.000
    N705     N        0.05553    0.51334    0.02894    1.000
    N706     N        0.03560    0.50043    0.09229    1.000
    Si707    Si       0.06742    0.49061    0.06541    1.000
    Si708    Si       0.00433    0.53022    0.08619    1.000
    N709     N        0.10975    0.49649    0.06260    1.000
    N710     N        0.13147    0.53263    0.23982    1.000
    N711     N        0.16318    0.49655    0.10765    1.000
    N712     N        0.22365    0.49249    0.07896    1.000
    Si713    Si       0.18894    0.52168    0.08382    1.000
    Si714    Si       0.12133    0.53415    0.04678    1.000
    N715     N        0.16302    0.53285    0.05088    1.000
    N716     N        0.01230    0.48864    0.20758    1.000
    Si717    Si       0.99800    0.50375    0.16802    1.000
    N718     N        0.08239    0.50471    0.20084    1.000
    N719     N        0.14498    0.51662    0.17419    1.000
    Si720    Si       0.23596    0.48886    0.12183    1.000
    Si721    Si       0.23103    0.52624    0.18663    1.000
    Si722    Si       0.12565    0.50181    0.20981    1.000
    N723     N        0.20122    0.53258    0.21859    1.000
    N724     N        0.21077    0.50513    0.15532    1.000
    Si725    Si       0.17004    0.49088    0.15058    1.000
    N726     N        0.06766    0.53091    0.27298    1.000
    N727     N        0.00972    0.52713    0.33553    1.000
    Si728    Si       0.05744    0.48795    0.28113    1.000
    Si729    Si       0.00434    0.48747    0.31747    1.000
    N730     N        0.00960    0.49059    0.27518    1.000
    N731     N        0.11258    0.49165    0.34917    1.000
    N732     N        0.10996    0.48474    0.28452    1.000
    Si733    Si       0.11010    0.52971    0.27943    1.000
    Si734    Si       0.21802    0.51894    0.25569    1.000
    N735     N        0.18835    0.52517    0.28791    1.000
    N736     N        0.17274    0.48672    0.33950    1.000
    Si737    Si       0.20376    0.48303    0.30784    1.000
    Si738    Si       0.01753    0.52645    0.37896    1.000
    N739     N        0.04395    0.50134    0.45003    1.000
    Si740    Si       0.06519    0.52054    0.41790    1.000
    N741     N        0.05230    0.50137    0.38031    1.000
    N742     N        0.10580    0.52100    0.43201    1.000
    Si743    Si       0.05229    0.50522    0.49181    1.000
    Si744    Si       0.14831    0.49623    0.37487    1.000
    N745     N        0.15251    0.47931    0.46325    1.000
    Si746    Si       0.23741    0.50645    0.48450    1.000
    Si747    Si       0.12788    0.51728    0.47052    1.000
    N748     N        0.15761    0.53329    0.39172    1.000
    N749     N        0.23314    0.50036    0.44082    1.000
    Si750    Si       0.01994    0.50273    0.59646    1.000
    N751     N        0.06342    0.50551    0.60502    1.000
    N752     N        0.00046    0.48833    0.55997    1.000
    Si753    Si       0.00391    0.52985    0.54237    1.000
    N754     N        0.09462    0.50694    0.49816    1.000
    Si755    Si       0.11570    0.51774    0.53362    1.000
    N756     N        0.12205    0.49563    0.57125    1.000
    N757     N        0.19334    0.51373    0.56696    1.000
    Si758    Si       0.15763    0.50876    0.59183    1.000
    N759     N        0.15409    0.51906    0.51386    1.000
    Si760    Si       0.23032    0.52735    0.58759    1.000
    N761     N        0.99590    0.51129    0.70474    1.000
    N762     N        0.08678    0.51348    0.72499    1.000
    N763     N        0.99613    0.49138    0.63297    1.000
    Si764    Si       0.01970    0.50015    0.66936    1.000
    N765     N        0.16370    0.48199    0.62547    1.000
    N766     N        0.22147    0.50634    0.69461    1.000
    N767     N        0.15638    0.52205    0.72869    1.000
    N768     N        0.11270    0.52553    0.65757    1.000
    Si769    Si       0.19712    0.50422    0.73404    1.000
    N770     N        0.23049    0.54380    0.62832    1.000
    N771     N        0.05891    0.50105    0.79051    1.000
    Si772    Si       0.06540    0.50763    0.83352    1.000
    Si773    Si       0.07181    0.53131    0.75977    1.000
    N774     N        0.10644    0.51765    0.84183    1.000
    N775     N        0.99201    0.49373    0.83202    1.000
    Si776    Si       0.99888    0.53561    0.84025    1.000
    N777     N        0.17395    0.51833    0.81037    1.000
    Si778    Si       0.15115    0.51021    0.84575    1.000
    N779     N        0.21809    0.52894    0.76294    1.000
    N780     N        0.21140    0.50877    0.90140    1.000
    Si781    Si       0.02529    0.50521    0.95440    1.000
    N782     N        0.04640    0.50295    0.91535    1.000
    N783     N        0.10397    0.48093    0.98179    1.000
    N784     N        0.17020    0.50655    0.99070    1.000
    Si785    Si       0.13093    0.51400    0.97297    1.000
    Si786    Si       0.17605    0.53568    0.90832    1.000
    N787     N        0.14504    0.51263    0.93183    1.000
    N788     N        0.23995    0.53527    0.95834    1.000
    N789     N        0.02474    0.56699    0.09725    1.000
    N790     N        0.04074    0.58174    0.03377    1.000
    N791     N        0.10260    0.56968    0.06712    1.000
    Si792    Si       0.02832    0.54401    0.01986    1.000
    N793     N        0.99059    0.53817    0.04428    1.000
    N794     N        0.11826    0.54498    0.00256    1.000
    N795     N        0.21008    0.55301    0.10282    1.000
    Si796    Si       0.18622    0.58981    0.10976    1.000
    N797     N        0.17218    0.58128    0.00481    1.000
    Si798    Si       0.12684    0.59036    0.09664    1.000
    Si799    Si       0.18562    0.54095    0.01372    1.000
    N800     N        0.22783    0.53901    0.02616    1.000
    Si801    Si       0.01578    0.57267    0.13998    1.000
    N802     N        0.05293    0.57143    0.21931    1.000
    N803     N        0.09275    0.56046    0.16332    1.000
    Si804    Si       0.06167    0.54080    0.18709    1.000
    Si805    Si       0.16642    0.55677    0.22887    1.000
    Si806    Si       0.13541    0.55739    0.16510    1.000
    N807     N        0.15194    0.58307    0.19671    1.000
    N808     N        0.15066    0.57161    0.12724    1.000
    N809     N        0.02661    0.53690    0.16132    1.000
    N810     N        0.00251    0.57153    0.27353    1.000
    Si811    Si       0.04712    0.57186    0.26724    1.000
    N812     N        0.06130    0.58816    0.30741    1.000
    N813     N        0.99809    0.58825    0.33701    1.000
    N814     N        0.16022    0.59717    0.39749    1.000
    Si815    Si       0.17362    0.56659    0.29635    1.000
    N816     N        0.12841    0.56653    0.29792    1.000
    N817     N        0.19628    0.57628    0.33407    1.000
    N818     N        0.18504    0.58318    0.25779    1.000
    Si819    Si       0.23710    0.57896    0.35019    1.000
    N820     N        0.10024    0.57875    0.39980    1.000
    N821     N        0.03956    0.55458    0.40706    1.000
    Si822    Si       0.01119    0.57275    0.43544    1.000
    Si823    Si       0.06025    0.59691    0.40414    1.000
    N824     N        0.22464    0.55725    0.38665    1.000
    N825     N        0.13923    0.56159    0.46403    1.000
    Si826    Si       0.18251    0.56617    0.37665    1.000
    Si827    Si       0.16011    0.59141    0.48835    1.000
    Si828    Si       0.13074    0.55440    0.42002    1.000
    Si829    Si       0.23125    0.58104    0.47196    1.000
    Si830    Si       0.06401    0.57558    0.52970    1.000
    N831     N        0.09942    0.55564    0.54760    1.000
    N832     N        0.00931    0.54428    0.58492    1.000
    Si833    Si       0.01495    0.58798    0.58938    1.000
    N834     N        0.08125    0.57192    0.61398    1.000
    N835     N        0.03901    0.53670    0.51900    1.000
    Si836    Si       0.11357    0.57085    0.58634    1.000
    Si837    Si       0.23071    0.58417    0.60839    1.000
    N838     N        0.17657    0.58167    0.52811    1.000
    N839     N        0.14892    0.55029    0.60163    1.000
    N840     N        0.22407    0.54467    0.50117    1.000
    N841     N        0.23246    0.56584    0.56824    1.000
    Si842    Si       0.18888    0.54027    0.53026    1.000
    Si843    Si       0.01700    0.54822    0.70605    1.000
    N844     N        0.00196    0.59147    0.70388    1.000
    N845     N        0.04079    0.53811    0.66622    1.000
    Si846    Si       0.07535    0.53584    0.63686    1.000
    Si847    Si       0.16245    0.57604    0.63534    1.000
    Si848    Si       0.13846    0.53995    0.68909    1.000
    Si849    Si       0.21943    0.54345    0.67112    1.000
    N850     N        0.12494    0.57763    0.71082    1.000
    N851     N        0.17561    0.55165    0.66743    1.000
    N852     N        0.10172    0.55698    0.77843    1.000
    Si853    Si       0.03660    0.59391    0.76375    1.000
    Si854    Si       0.11507    0.55709    0.86231    1.000
    N855     N        0.03968    0.53670    0.85419    1.000
    N856     N        0.11608    0.59464    0.84187    1.000
    N857     N        0.21964    0.58552    0.79825    1.000
    N858     N        0.16435    0.57978    0.76771    1.000
    Si859    Si       0.19266    0.55154    0.79008    1.000
    N860     N        0.03007    0.54390    0.97622    1.000
    Si861    Si       0.02288    0.58058    0.95453    1.000
    Si862    Si       0.04783    0.54275    0.89681    1.000
    N863     N        0.01391    0.56099    0.91820    1.000
    N864     N        0.08456    0.56469    0.89527    1.000
    N865     N        0.19071    0.57078    0.93068    1.000
    N866     N        0.15569    0.54494    0.87201    1.000
    N867     N        0.12771    0.59011    0.94825    1.000
    Si868    Si       0.23320    0.57406    0.94046    1.000
    Si869    Si       0.13105    0.58475    0.99056    1.000
    N870     N        0.05650    0.59689    0.80221    1.000
    Si871    Si       0.10012    0.59447    0.80145    1.000
    N872     N        0.03602    0.55498    0.74586    1.000
    Si873    Si       0.13484    0.55692    0.74772    1.000
    N874     N        0.06166    0.62928    0.06691    1.000
    N875     N        0.10374    0.61436    0.00945    1.000
    Si876    Si       0.08012    0.64917    0.10146    1.000
    Si877    Si       0.02668    0.60144    0.07211    1.000
    N878     N        0.99226    0.62543    0.08240    1.000
    N879     N        0.10066    0.61430    0.11957    1.000
    Si880    Si       0.08071    0.59808    0.04275    1.000
    N881     N        0.16187    0.61050    0.07825    1.000
    N882     N        0.21300    0.63411    0.03262    1.000
    Si883    Si       0.17575    0.64416    0.05498    1.000
    N884     N        0.03827    0.65176    0.19776    1.000
    N885     N        0.03826    0.60415    0.15361    1.000
    Si886    Si       0.05373    0.61519    0.21509    1.000
    N887     N        0.09318    0.62201    0.19259    1.000
    Si888    Si       0.02802    0.64747    0.15704    1.000
    Si889    Si       0.08327    0.60106    0.15631    1.000
    Si890    Si       0.18872    0.62386    0.24091    1.000
    Si891    Si       0.13491    0.62513    0.19611    1.000
    N892     N        0.21019    0.62661    0.20278    1.000
    N893     N        0.15181    0.65206    0.16857    1.000
    N894     N        0.20776    0.61917    0.13309    1.000
    N895     N        0.14874    0.64084    0.23488    1.000
    Si896    Si       0.19684    0.64677    0.16645    1.000
    Si897    Si       0.11135    0.65545    0.00448    1.000
    N898     N        0.98729    0.65441    0.14596    1.000
    Si899    Si       0.20026    0.61278    0.99474    1.000
    Si900    Si       0.03417    0.61050    0.33176    1.000
    N901     N        0.03546    0.62045    0.25412    1.000
    N902     N        0.09537    0.64205    0.27955    1.000
    N903     N        0.02738    0.65057    0.31279    1.000
    Si904    Si       0.99314    0.61292    0.25951    1.000
    Si905    Si       0.10304    0.60299    0.30337    1.000
    Si906    Si       0.05277    0.65561    0.27725    1.000
    N907     N        0.05045    0.62272    0.37093    1.000
    N908     N        0.11821    0.62219    0.34054    1.000
    N909     N        0.21433    0.64439    0.26804    1.000
    Si910    Si       0.05405    0.62965    0.47473    1.000
    N911     N        0.10200    0.64557    0.40240    1.000
    N912     N        0.04262    0.60422    0.44344    1.000
    N913     N        0.19460    0.59998    0.46281    1.000
    N914     N        0.21271    0.64491    0.40482    1.000
    Si915    Si       0.18220    0.62423    0.42644    1.000
    Si916    Si       0.12103    0.61140    0.38202    1.000
    N917     N        0.15530    0.65313    0.44245    1.000
    Si918    Si       0.03206    0.64051    0.53975    1.000
    N919     N        0.07737    0.61059    0.50742    1.000
    Si920    Si       0.09782    0.65472    0.51406    1.000
    N921     N        0.09256    0.64652    0.61861    1.000
    N922     N        0.03028    0.61863    0.61855    1.000
    N923     N        0.03264    0.59884    0.55185    1.000
    N924     N        0.01959    0.64086    0.49837    1.000
    N925     N        0.17748    0.65610    0.55502    1.000
    Si926    Si       0.15732    0.61864    0.54636    1.000
    N927     N        0.13390    0.61138    0.58059    1.000
    Si928    Si       0.13463    0.63386    0.61793    1.000
    N929     N        0.14132    0.62936    0.50475    1.000
    N930     N        0.19517    0.60169    0.62114    1.000
    N931     N        0.13354    0.60581    0.65123    1.000
    Si932    Si       0.07175    0.61054    0.62966    1.000
    N933     N        0.06869    0.60745    0.67305    1.000
    Si934    Si       0.03421    0.61981    0.69680    1.000
    N935     N        0.05297    0.62196    0.73692    1.000
    N936     N        0.10770    0.65074    0.70546    1.000
    Si937    Si       0.10911    0.61030    0.68721    1.000
    Si938    Si       0.08666    0.64899    0.74561    1.000
    Si939    Si       0.23750    0.61843    0.69790    1.000
    N940     N        0.20842    0.62566    0.72939    1.000
    Si941    Si       0.20403    0.64415    0.63033    1.000
    N942     N        0.21376    0.64606    0.67152    1.000
    Si943    Si       0.03011    0.62667    0.81815    1.000
    N944     N        0.99951    0.61522    0.77990    1.000
    N945     N        0.02776    0.63342    0.85988    1.000
    Si946    Si       0.19590    0.65319    0.89008    1.000
    N947     N        0.22701    0.64888    0.92100    1.000
    N948     N        0.11013    0.63055    0.77801    1.000
    Si949    Si       0.19604    0.61078    0.77028    1.000
    N950     N        0.18130    0.64313    0.79174    1.000
    N951     N        0.21518    0.64568    0.85219    1.000
    Si952    Si       0.12635    0.62795    0.86717    1.000
    N953     N        0.16168    0.62444    0.89216    1.000
    Si954    Si       0.99042    0.64022    0.99053    1.000
    Si955    Si       0.05399    0.64688    0.95806    1.000
    N956     N        0.05811    0.60535    0.95065    1.000
    N957     N        0.09049    0.63183    0.89391    1.000
    Si958    Si       0.09120    0.59739    0.92230    1.000
    Si959    Si       0.05594    0.65626    0.88505    1.000
    N960     N        0.03068    0.64914    0.99721    1.000
    N961     N        0.23583    0.59818    0.97602    1.000
    Si962    Si       0.16417    0.60676    0.93266    1.000
    N963     N        0.17547    0.63360    0.96478    1.000
    N964     N        0.08420    0.68237    0.02606    1.000
    N965     N        0.01735    0.68506    0.05015    1.000
    Si966    Si       0.04796    0.65982    0.03468    1.000
    N967     N        0.10846    0.67731    0.08966    1.000
    Si968    Si       0.14647    0.69496    0.16388    1.000
    N969     N        0.17945    0.67842    0.08199    1.000
    Si970    Si       0.14133    0.70248    0.08608    1.000
    Si971    Si       0.19677    0.70100    0.11573    1.000
    N972     N        0.15137    0.65991    0.02010    1.000
    Si973    Si       0.02525    0.68863    0.21280    1.000
    Si974    Si       0.07403    0.70145    0.15769    1.000
    N975     N        0.06149    0.66538    0.13752    1.000
    N976     N        0.03624    0.71237    0.17858    1.000
    N977     N        0.21055    0.68747    0.15528    1.000
    N978     N        0.09111    0.68591    0.34558    1.000
    N979     N        0.03647    0.69158    0.25402    1.000
    N980     N        0.11687    0.70510    0.25042    1.000
    Si981    Si       0.19776    0.67729    0.29577    1.000
    N982     N        0.15553    0.67496    0.30130    1.000
    N983     N        0.21600    0.66742    0.33357    1.000
    Si984    Si       0.13022    0.66721    0.26606    1.000
    Si985    Si       0.13041    0.66498    0.33648    1.000
    N986     N        0.21419    0.71339    0.27789    1.000
    Si987    Si       0.00750    0.69207    0.42148    1.000
    N988     N        0.04678    0.69031    0.39957    1.000
    N989     N        0.07595    0.66746    0.47600    1.000
    Si990    Si       0.05930    0.70846    0.47869    1.000
    N991     N        0.01890    0.70019    0.46346    1.000
    Si992    Si       0.99291    0.66783    0.47754    1.000
    Si993    Si       0.06946    0.66149    0.37704    1.000
    Si994    Si       0.15382    0.66866    0.48411    1.000
    N995     N        0.15500    0.66674    0.37110    1.000
    N996     N        0.19391    0.68450    0.49213    1.000
    Si997    Si       0.13427    0.67307    0.40938    1.000
    Si998    Si       0.19722    0.67292    0.37397    1.000
    N999     N        0.20342    0.70952    0.39544    1.000
    N1000    N        0.12276    0.71467    0.41220    1.000
    Si1001   Si       0.07609    0.67734    0.59026    1.000
    N1002    N        0.03983    0.69130    0.61057    1.000
    N1003    N        0.99603    0.66019    0.55699    1.000
    N1004    N        0.10183    0.71096    0.58025    1.000
    N1005    N        0.07163    0.65835    0.55141    1.000
    Si1006   Si       0.18444    0.68622    0.58693    1.000
    Si1007   Si       0.20896    0.67190    0.53075    1.000
    N1008    N        0.12398    0.68853    0.51086    1.000
    N1009    N        0.22414    0.67097    0.60484    1.000
    N1010    N        0.20947    0.70787    0.55510    1.000
    N1011    N        0.00519    0.67903    0.73875    1.000
    Si1012   Si       0.00468    0.69065    0.69715    1.000
    Si1013   Si       0.01884    0.65833    0.63252    1.000
    N1014    N        0.16515    0.66433    0.62355    1.000
    N1015    N        0.16555    0.68477    0.69198    1.000
    N1016    N        0.22553    0.69622    0.72536    1.000
    N1017    N        0.12106    0.70880    0.65222    1.000
    Si1018   Si       0.16814    0.70544    0.65089    1.000
    Si1019   Si       0.12237    0.69222    0.69452    1.000
    Si1020   Si       0.19849    0.66495    0.70957    1.000
    N1021    N        0.02326    0.65675    0.67559    1.000
    Si1022   Si       0.03403    0.69205    0.76996    1.000
    Si1023   Si       0.03165    0.70182    0.83447    1.000
    N1024    N        0.03550    0.66634    0.80425    1.000
    N1025    N        0.07261    0.68900    0.75157    1.000
    N1026    N        0.06495    0.69254    0.86431    1.000
    N1027    N        0.99269    0.68726    0.85068    1.000
    Si1028   Si       0.15702    0.69810    0.85327    1.000
    N1029    N        0.13651    0.69282    0.77476    1.000
    Si1030   Si       0.20870    0.66858    0.81534    1.000
    N1031    N        0.19033    0.70501    0.82669    1.000
    N1032    N        0.13567    0.66265    0.84024    1.000
    Si1033   Si       0.13913    0.65461    0.79815    1.000
    N1034    N        0.09190    0.66538    0.96508    1.000
    Si1035   Si       0.10608    0.70690    0.96003    1.000
    N1036    N        0.03170    0.66396    0.92367    1.000
    Si1037   Si       0.15620    0.71378    0.92475    1.000
    Si1038   Si       0.17196    0.67254    0.98353    1.000
    N1039    N        0.17243    0.68963    0.89195    1.000
    N1040    N        0.21214    0.68881    0.97869    1.000
    N1041    N        0.14916    0.70180    0.96564    1.000
    N1042    N        0.06474    0.73644    0.06120    1.000
    Si1043   Si       0.07185    0.76185    0.09570    1.000
    Si1044   Si       0.02345    0.72599    0.06396    1.000
    N1045    N        0.00301    0.76076    0.04866    1.000
    Si1046   Si       0.09454    0.72345    0.03326    1.000
    N1047    N        0.00911    0.72445    0.10536    1.000
    N1048    N        0.13049    0.73189    0.05607    1.000
    N1049    N        0.22670    0.72874    0.10139    1.000
    Si1050   Si       0.09656    0.76042    0.16171    1.000
    N1051    N        0.07010    0.74001    0.13237    1.000
    Si1052   Si       0.02490    0.73745    0.14241    1.000
    N1053    N        0.99757    0.76476    0.16013    1.000
    N1054    N        0.23715    0.73167    0.21134    1.000
    N1055    N        0.11872    0.76716    0.23577    1.000
    N1056    N        0.15600    0.71592    0.12663    1.000
    Si1057   Si       0.23237    0.76373    0.12804    1.000
    Si1058   Si       0.16334    0.75798    0.13216    1.000
    N1059    N        0.20089    0.75555    0.15657    1.000
    Si1060   Si       0.20726    0.72166    0.18327    1.000
    Si1061   Si       0.13113    0.72874    0.21600    1.000
    N1062    N        0.16810    0.71384    0.20053    1.000
    N1063    N        0.10938    0.71841    0.17824    1.000
    N1064    N        0.04104    0.73626    0.31493    1.000
    Si1065   Si       0.07971    0.72790    0.33737    1.000
    Si1066   Si       0.03054    0.72943    0.27291    1.000
    Si1067   Si       0.10198    0.74207    0.26926    1.000
    N1068    N        0.06167    0.75508    0.25667    1.000
    N1069    N        0.10999    0.74601    0.31157    1.000
    Si1070   Si       0.02075    0.77477    0.32366    1.000
    N1071    N        0.18756    0.74236    0.33241    1.000
    Si1072   Si       0.20633    0.75109    0.29492    1.000
    Si1073   Si       0.14983    0.76145    0.31865    1.000
    N1074    N        0.16944    0.76623    0.27787    1.000
    N1075    N        0.07030    0.74610    0.37567    1.000
    N1076    N        0.07338    0.73696    0.44806    1.000
    Si1077   Si       0.07917    0.71951    0.40882    1.000
    Si1078   Si       0.20511    0.74899    0.37135    1.000
    N1079    N        0.16362    0.74193    0.46269    1.000
    Si1080   Si       0.14992    0.74573    0.42213    1.000
    Si1081   Si       0.14817    0.76939    0.49438    1.000
    Si1082   Si       0.20267    0.72414    0.47778    1.000
    N1083    N        0.17690    0.76798    0.39614    1.000
    Si1084   Si       0.03485    0.73287    0.61037    1.000
    Si1085   Si       0.03749    0.75459    0.53374    1.000
    N1086    N        0.04645    0.76070    0.57602    1.000
    N1087    N        0.06818    0.72714    0.51729    1.000
    N1088    N        0.00052    0.73078    0.52869    1.000
    Si1089   Si       0.10864    0.72129    0.53664    1.000
    Si1090   Si       0.10558    0.73441    0.61880    1.000
    N1091    N        0.99430    0.74330    0.61906    1.000
    N1092    N        0.13836    0.75389    0.53537    1.000
    N1093    N        0.17688    0.72510    0.60848    1.000
    N1094    N        0.20817    0.75581    0.50862    1.000
    Si1095   Si       0.23143    0.74424    0.54656    1.000
    Si1096   Si       0.20251    0.76010    0.61590    1.000
    N1097    N        0.21834    0.77392    0.57513    1.000
    Si1098   Si       0.05069    0.75973    0.67546    1.000
    N1099    N        0.06629    0.75062    0.63563    1.000
    N1100    N        0.03010    0.72422    0.68931    1.000
    N1101    N        0.17856    0.75743    0.72945    1.000
    N1102    N        0.11454    0.72865    0.71887    1.000
    Si1103   Si       0.23826    0.73794    0.67185    1.000
    Si1104   Si       0.21753    0.73794    0.73615    1.000
    N1105    N        0.19467    0.73965    0.66729    1.000
    Si1106   Si       0.17804    0.77613    0.68767    1.000
    N1107    N        0.01569    0.74317    0.85715    1.000
    N1108    N        0.02953    0.72645    0.79684    1.000
    N1109    N        0.10021    0.74955    0.78805    1.000
    Si1110   Si       0.01910    0.76879    0.80109    1.000
    Si1111   Si       0.10536    0.71608    0.76000    1.000
    N1112    N        0.12799    0.72891    0.85095    1.000
    Si1113   Si       0.12753    0.75860    0.81971    1.000
    Si1114   Si       0.20210    0.74608    0.81854    1.000
    N1115    N        0.22132    0.75435    0.85893    1.000
    N1116    N        0.22824    0.73909    0.77845    1.000
    N1117    N        0.16529    0.76425    0.80123    1.000
    Si1118   Si       0.09483    0.72277    0.87904    1.000
    N1119    N        0.07616    0.76321    0.88481    1.000
    N1120    N        0.09688    0.73817    0.99129    1.000
    N1121    N        0.99620    0.75325    0.97721    1.000
    N1122    N        0.11147    0.71480    0.91810    1.000
    N1123    N        0.99613    0.71893    0.91700    1.000
    Si1124   Si       0.21854    0.74517    0.90132    1.000
    Si1125   Si       0.21291    0.76724    0.96002    1.000
    N1126    N        0.23235    0.75331    0.99477    1.000
    N1127    N        0.18239    0.74765    0.92756    1.000
    Si1128   Si       0.00717    0.79680    0.07375    1.000
    N1129    N        0.04202    0.79420    0.09779    1.000
    N1130    N        0.10285    0.79103    0.08681    1.000
    Si1131   Si       0.07451    0.82310    0.09719    1.000
    N1132    N        0.07480    0.80675    0.00672    1.000
    Si1133   Si       0.10359    0.82756    0.03385    1.000
    N1134    N        0.23523    0.83024    0.17788    1.000
    Si1135   Si       0.13636    0.77475    0.06505    1.000
    Si1136   Si       0.17650    0.81280    0.01024    1.000
    Si1137   Si       0.19843    0.80679    0.07986    1.000
    N1138    N        0.20926    0.80215    0.03861    1.000
    N1139    N        0.14084    0.80358    0.03172    1.000
    N1140    N        0.22516    0.80309    0.11232    1.000
    N1141    N        0.16855    0.77551    0.09310    1.000
    N1142    N        0.00037    0.79516    0.22220    1.000
    Si1143   Si       0.02142    0.79192    0.18432    1.000
    Si1144   Si       0.07571    0.78246    0.22740    1.000
    N1145    N        0.07328    0.82513    0.23010    1.000
    N1146    N        0.06458    0.78010    0.18533    1.000
    N1147    N        0.17239    0.80939    0.21439    1.000
    N1148    N        0.13476    0.78069    0.15634    1.000
    Si1149   Si       0.15282    0.81730    0.17584    1.000
    N1150    N        0.03962    0.80405    0.35211    1.000
    N1151    N        0.01358    0.79945    0.28949    1.000
    N1152    N        0.14334    0.79735    0.34229    1.000
    N1153    N        0.12910    0.82194    0.27618    1.000
    N1154    N        0.22949    0.81277    0.36081    1.000
    Si1155   Si       0.23011    0.81594    0.31833    1.000
    N1156    N        0.19335    0.82641    0.30041    1.000
    Si1157   Si       0.15138    0.79275    0.25023    1.000
    N1158    N        0.12300    0.78409    0.41880    1.000
    N1159    N        0.05916    0.80066    0.42277    1.000
    N1160    N        0.10719    0.78367    0.48439    1.000
    Si1161   Si       0.04405    0.77827    0.38886    1.000
    Si1162   Si       0.08794    0.77706    0.44488    1.000
    N1163    N        0.17159    0.80716    0.48788    1.000
    Si1164   Si       0.21487    0.79695    0.49162    1.000
    Si1165   Si       0.14805    0.80019    0.38657    1.000
    N1166    N        0.00498    0.77006    0.40815    1.000
    N1167    N        0.09432    0.80284    0.55241    1.000
    Si1168   Si       0.08150    0.80763    0.51198    1.000
    Si1169   Si       0.07733    0.78961    0.58910    1.000
    N1170    N        0.04194    0.79192    0.51198    1.000
    N1171    N        0.06395    0.82727    0.60625    1.000
    Si1172   Si       0.00375    0.80960    0.49997    1.000
    N1173    N        0.99214    0.81478    0.60492    1.000
    N1174    N        0.16734    0.81459    0.56072    1.000
    Si1175   Si       0.21380    0.81550    0.56156    1.000
    Si1176   Si       0.13510    0.78842    0.56258    1.000
    N1177    N        0.23698    0.81593    0.52522    1.000
    N1178    N        0.12002    0.77565    0.60331    1.000
    N1179    N        0.02181    0.78951    0.66306    1.000
    Si1180   Si       0.01525    0.82633    0.68382    1.000
    N1181    N        0.07187    0.77892    0.70839    1.000
    Si1182   Si       0.05659    0.80215    0.74177    1.000
    Si1183   Si       0.99184    0.81329    0.74329    1.000
    N1184    N        0.18144    0.79812    0.63038    1.000
    Si1185   Si       0.13747    0.80108    0.63540    1.000
    N1186    N        0.19011    0.81796    0.69074    1.000
    N1187    N        0.13023    0.80173    0.74171    1.000
    N1188    N        0.13599    0.77917    0.67359    1.000
    Si1189   Si       0.20218    0.83012    0.65165    1.000
    Si1190   Si       0.11426    0.77124    0.71203    1.000
    Si1191   Si       0.08367    0.81615    0.81560    1.000
    N1192    N        0.04952    0.79021    0.82490    1.000
    N1193    N        0.07901    0.82263    0.77349    1.000
    N1194    N        0.02201    0.78466    0.75930    1.000
    Si1195   Si       0.04221    0.77512    0.86314    1.000
    N1196    N        0.12005    0.80042    0.83547    1.000
    N1197    N        0.19687    0.81210    0.76531    1.000
    Si1198   Si       0.16472    0.78362    0.76207    1.000
    Si1199   Si       0.21875    0.83129    0.79742    1.000
    N1200    N        0.05290    0.78870    0.95050    1.000
    Si1201   Si       0.00902    0.78842    0.95771    1.000
    N1202    N        0.03595    0.81102    0.88692    1.000
    Si1203   Si       0.07065    0.79840    0.91124    1.000
    N1204    N        0.00713    0.82571    0.97882    1.000
    Si1205   Si       0.08623    0.77907    0.97669    1.000
    Si1206   Si       0.13612    0.81897    0.87126    1.000
    N1207    N        0.16757    0.80781    0.89969    1.000
    N1208    N        0.22786    0.82858    0.87600    1.000
    Si1209   Si       0.15644    0.78333    0.93841    1.000
    N1210    N        0.23579    0.77908    0.92294    1.000
    N1211    N        0.11858    0.79664    0.95078    1.000
    N1212    N        0.18045    0.79345    0.97168    1.000
    Si1213   Si       0.20786    0.81894    0.91204    1.000
    N1214    N        0.09996    0.83134    0.89896    1.000
    Si1215   Si       0.04948    0.83445    0.98295    1.000
    Si1216   Si       0.03887    0.86825    0.05625    1.000
    N1217    N        0.02287    0.86804    0.09865    1.000
    N1218    N        0.07766    0.84800    0.06429    1.000
    N1219    N        0.04167    0.87223    0.00836    1.000
    N1220    N        0.11466    0.86433    0.01308    1.000
    N1221    N        0.18241    0.84618    0.08528    1.000
    Si1222   Si       0.15142    0.88524    0.01106    1.000
    Si1223   Si       0.17346    0.88740    0.08543    1.000
    N1224    N        0.18130    0.85654    0.99665    1.000
    Si1225   Si       0.04856    0.87802    0.13413    1.000
    N1226    N        0.07373    0.84270    0.13791    1.000
    N1227    N        0.07580    0.88787    0.19085    1.000
    Si1228   Si       0.00036    0.84043    0.21566    1.000
    Si1229   Si       0.07149    0.84055    0.18460    1.000
    N1230    N        0.02716    0.83632    0.18276    1.000
    Si1231   Si       0.22033    0.83758    0.13881    1.000
    N1232    N        0.18823    0.87659    0.21436    1.000
    Si1233   Si       0.20991    0.83594    0.21511    1.000
    N1234    N        0.17684    0.84681    0.15435    1.000
    Si1235   Si       0.11598    0.88247    0.20488    1.000
    N1236    N        0.11773    0.84064    0.18708    1.000
    Si1237   Si       0.17746    0.88622    0.17223    1.000
    N1238    N        0.01007    0.83287    0.04855    1.000
    N1239    N        0.06303    0.85355    0.29366    1.000
    N1240    N        0.06052    0.87927    0.35562    1.000
    Si1241   Si       0.02880    0.84781    0.35681    1.000
    Si1242   Si       0.09335    0.84451    0.26420    1.000
    N1243    N        0.99855    0.85163    0.32479    1.000
    N1244    N        0.00812    0.86053    0.25311    1.000
    Si1245   Si       0.02156    0.84236    0.28955    1.000
    N1246    N        0.11371    0.87965    0.24731    1.000
    N1247    N        0.21526    0.87569    0.34678    1.000
    N1248    N        0.15119    0.87698    0.31086    1.000
    Si1249   Si       0.10136    0.86898    0.46448    1.000
    N1250    N        0.07385    0.86676    0.42982    1.000
    N1251    N        0.01516    0.85006    0.39623    1.000
    Si1252   Si       0.00111    0.87152    0.47620    1.000
    Si1253   Si       0.04115    0.83890    0.42828    1.000
    N1254    N        0.16456    0.84197    0.38381    1.000
    N1255    N        0.22291    0.86387    0.41368    1.000
    Si1256   Si       0.20749    0.84593    0.37808    1.000
    N1257    N        0.20789    0.86647    0.47779    1.000
    Si1258   Si       0.16703    0.84953    0.47924    1.000
    Si1259   Si       0.15050    0.87319    0.40842    1.000
    N1260    N        0.13975    0.85725    0.44682    1.000
    Si1261   Si       0.06091    0.89411    0.31576    1.000
    Si1262   Si       0.15318    0.83186    0.31243    1.000
    N1263    N        0.01008    0.83218    0.45810    1.000
    N1264    N        0.01571    0.87257    0.57947    1.000
    Si1265   Si       0.09577    0.85690    0.60271    1.000
    Si1266   Si       0.10594    0.88023    0.52662    1.000
    Si1267   Si       0.02387    0.84371    0.61323    1.000
    N1268    N        0.00118    0.85236    0.51492    1.000
    N1269    N        0.08755    0.84857    0.49995    1.000
    N1270    N        0.12029    0.86699    0.56910    1.000
    Si1271   Si       0.15968    0.85937    0.55243    1.000
    N1272    N        0.14745    0.86870    0.51232    1.000
    N1273    N        0.19799    0.87713    0.54921    1.000
    Si1274   Si       0.23680    0.88371    0.56781    1.000
    N1275    N        0.18595    0.87029    0.64070    1.000
    N1276    N        0.01359    0.85812    0.65385    1.000
    N1277    N        0.08685    0.87542    0.73583    1.000
    Si1278   Si       0.04347    0.87086    0.74237    1.000
    Si1279   Si       0.20966    0.83208    0.72760    1.000
    Si1280   Si       0.14451    0.87974    0.64876    1.000
    N1281    N        0.14132    0.88705    0.69039    1.000
    N1282    N        0.12359    0.84369    0.63326    1.000
    N1283    N        0.19387    0.87246    0.73841    1.000
    N1284    N        0.03009    0.83219    0.72413    1.000
    N1285    N        0.07577    0.85553    0.83482    1.000
    N1286    N        0.03074    0.87636    0.78436    1.000
    N1287    N        0.99444    0.84092    0.84025    1.000
    Si1288   Si       0.99347    0.86828    0.80485    1.000
    Si1289   Si       0.05981    0.88948    0.81269    1.000
    Si1290   Si       0.11231    0.84225    0.75308    1.000
    Si1291   Si       0.15825    0.87350    0.82255    1.000
    Si1292   Si       0.22268    0.86653    0.85793    1.000
    N1293    N        0.13543    0.86213    0.78587    1.000
    N1294    N        0.19828    0.85905    0.82178    1.000
    N1295    N        0.14279    0.86173    0.86085    1.000
    Si1296   Si       0.19091    0.87089    0.95660    1.000
    Si1297   Si       0.01195    0.84639    0.87744    1.000
    Si1298   Si       0.08101    0.86677    0.87862    1.000
    N1299    N        0.04056    0.87620    0.89050    1.000
    N1300    N        0.08147    0.85540    0.95907    1.000
    Si1301   Si       0.08021    0.88265    0.99171    1.000
    N1302    N        0.22186    0.84577    0.94206    1.000
    Si1303   Si       0.11710    0.84065    0.93781    1.000
    N1304    N        0.15210    0.86674    0.93593    1.000
    Si1305   Si       0.22862    0.88957    0.75843    1.000
    N1306    N        0.04752    0.91376    0.06057    1.000
    Si1307   Si       0.05058    0.93752    0.02535    1.000
    Si1308   Si       0.06912    0.93626    0.09162    1.000
    N1309    N        0.01084    0.93175    0.00706    1.000
    N1310    N        0.14006    0.90806    0.17594    1.000
    Si1311   Si       0.14553    0.94027    0.07484    1.000
    N1312    N        0.14928    0.91270    0.10834    1.000
    N1313    N        0.15655    0.90516    0.04899    1.000
    N1314    N        0.21068    0.91063    0.08072    1.000
    N1315    N        0.21402    0.93542    0.00674    1.000
    Si1316   Si       0.21318    0.94120    0.05049    1.000
    N1317    N        0.08074    0.90517    0.11953    1.000
    N1318    N        0.02199    0.90278    0.15963    1.000
    Si1319   Si       0.04477    0.91602    0.19300    1.000
    N1320    N        0.02504    0.92659    0.23003    1.000
    Si1321   Si       0.11749    0.91675    0.13807    1.000
    Si1322   Si       0.22909    0.90768    0.11905    1.000
    Si1323   Si       0.19074    0.90973    0.24255    1.000
    N1324    N        0.20972    0.91034    0.15856    1.000
    N1325    N        0.20862    0.94395    0.22285    1.000
    N1326    N        0.09378    0.91586    0.29904    1.000
    N1327    N        0.02295    0.90928    0.29858    1.000
    Si1328   Si       0.00471    0.90341    0.26155    1.000
    N1329    N        0.00053    0.94181    0.36326    1.000
    Si1330   Si       0.01786    0.94319    0.32246    1.000
    N1331    N        0.17390    0.92864    0.48714    1.000
    N1332    N        0.11954    0.90018    0.39356    1.000
    N1333    N        0.15740    0.92587    0.26321    1.000
    Si1334   Si       0.12959    0.90115    0.28309    1.000
    N1335    N        0.19937    0.94095    0.32726    1.000
    Si1336   Si       0.19460    0.89592    0.31502    1.000
    N1337    N        0.21504    0.89461    0.27707    1.000
    N1338    N        0.17813    0.90865    0.41156    1.000
    Si1339   Si       0.04133    0.93513    0.44635    1.000
    N1340    N        0.05650    0.92833    0.40746    1.000
    N1341    N        0.03349    0.90208    0.47537    1.000
    N1342    N        0.10394    0.90840    0.48593    1.000
    Si1343   Si       0.07656    0.89292    0.39533    1.000
    N1344    N        0.23045    0.93753    0.44669    1.000
    Si1345   Si       0.21852    0.90827    0.41648    1.000
    Si1346   Si       0.14371    0.93602    0.40445    1.000
    Si1347   Si       0.13340    0.94417    0.48263    1.000
    Si1348   Si       0.04501    0.90346    0.57544    1.000
    N1349    N        0.02465    0.94321    0.58288    1.000
    N1350    N        0.06674    0.90251    0.53850    1.000
    Si1351   Si       0.06424    0.91936    0.49932    1.000
    N1352    N        0.07125    0.89389    0.60875    1.000
    Si1353   Si       0.19373    0.89637    0.51017    1.000
    N1354    N        0.22361    0.91417    0.59579    1.000
    N1355    N        0.22955    0.92692    0.51444    1.000
    Si1356   Si       0.10216    0.90652    0.70724    1.000
    Si1357   Si       0.08402    0.91797    0.64009    1.000
    N1358    N        0.00934    0.92674    0.65344    1.000
    N1359    N        0.02252    0.90118    0.71785    1.000
    N1360    N        0.07401    0.89656    0.67479    1.000
    Si1361   Si       0.99138    0.92533    0.73874    1.000
    Si1362   Si       0.03136    0.89449    0.67340    1.000
    N1363    N        0.12746    0.91638    0.63056    1.000
    N1364    N        0.18859    0.94704    0.63369    1.000
    N1365    N        0.19615    0.93203    0.71615    1.000
    N1366    N        0.13172    0.92514    0.74282    1.000
    Si1367   Si       0.16523    0.90370    0.72270    1.000
    Si1368   Si       0.20878    0.90645    0.63525    1.000
    N1369    N        0.24040    0.90177    0.66336    1.000
    N1370    N        0.03396    0.91356    0.83500    1.000
    N1371    N        0.08911    0.91737    0.79706    1.000
    Si1372   Si       0.00288    0.93430    0.81015    1.000
    N1373    N        0.01173    0.94778    0.77098    1.000
    Si1374   Si       0.12618    0.90525    0.78023    1.000
    N1375    N        0.15912    0.91584    0.80796    1.000
    N1376    N        0.22569    0.92864    0.77639    1.000
    Si1377   Si       0.20130    0.92655    0.90775    1.000
    Si1378   Si       0.02531    0.91429    0.87641    1.000
    Si1379   Si       0.08959    0.94034    0.90326    1.000
    N1380    N        0.10421    0.89906    0.89480    1.000
    N1381    N        0.04682    0.94672    0.89635    1.000
    N1382    N        0.00115    0.90045    0.94988    1.000
    Si1383   Si       0.11239    0.94635    0.98194    1.000
    Si1384   Si       0.14915    0.89048    0.89700    1.000
    N1385    N        0.19743    0.88886    0.88543    1.000
    N1386    N        0.15922    0.93221    0.90663    1.000
    N1387    N        0.14738    0.92076    0.98357    1.000
    Si1388   Si       0.18427    0.94201    0.97404    1.000
    N1389    N        0.20708    0.91230    0.94884    1.000
    Si1390   Si       0.00330    0.89109    0.99262    1.000
    N1391    N        0.08255    0.92496    0.99981    1.000
    N1392    N        0.05573    0.97995    0.03427    1.000
    Si1393   Si       0.09653    0.98710    0.04599    1.000
    Si1394   Si       0.00355    0.97602    0.11357    1.000
    N1395    N        0.04595    0.96532    0.11561    1.000
    Si1396   Si       0.02022    0.00411    0.04082    1.000
    N1397    N        0.99487    0.00157    0.00778    1.000
    N1398    N        0.10383    0.95514    0.07408    1.000
    N1399    N        0.99449    0.99048    0.07231    1.000
    N1400    N        0.12013    0.97883    0.00939    1.000
    N1401    N        0.17790    0.96620    0.06383    1.000
    N1402    N        0.18115    0.97317    0.16214    1.000
    Si1403   Si       0.15076    0.00473    0.99535    1.000
    Si1404   Si       0.02569    0.96827    0.21837    1.000
    Si1405   Si       0.07308    0.97675    0.14732    1.000
    N1406    N        0.05293    0.96078    0.18328    1.000
    N1407    N        0.11249    0.95887    0.14915    1.000
    N1408    N        0.99338    0.00850    0.14124    1.000
    Si1409   Si       0.21610    0.95020    0.17936    1.000
    N1410    N        0.13978    0.97757    0.21317    1.000
    Si1411   Si       0.14596    0.95332    0.17772    1.000
    Si1412   Si       0.07731    0.00966    0.24723    1.000
    N1413    N        0.09890    0.97555    0.26657    1.000
    Si1414   Si       0.09259    0.96241    0.30849    1.000
    N1415    N        0.99850    0.97765    0.30507    1.000
    N1416    N        0.09225    0.00587    0.32609    1.000
    N1417    N        0.03385    0.99914    0.24720    1.000
    Si1418   Si       0.01290    0.01293    0.28225    1.000
    Si1419   Si       0.23386    0.95052    0.35173    1.000
    Si1420   Si       0.12999    0.99487    0.35111    1.000
    Si1421   Si       0.14107    0.96686    0.25462    1.000
    N1422    N        0.17871    0.98928    0.27253    1.000
    N1423    N        0.13535    0.96358    0.31960    1.000
    Si1424   Si       0.17684    0.97606    0.31535    1.000
    N1425    N        0.22865    0.98956    0.37065    1.000
    Si1426   Si       0.21634    0.97704    0.24813    1.000
    Si1427   Si       0.04131    0.95333    0.37697    1.000
    N1428    N        0.06034    0.95878    0.47960    1.000
    N1429    N        0.00706    0.95944    0.43742    1.000
    N1430    N        0.04277    0.99405    0.39004    1.000
    Si1431   Si       0.01862    0.99987    0.42662    1.000
    N1432    N        0.15674    0.96879    0.38146    1.000
    Si1433   Si       0.20946    0.95218    0.48063    1.000
    N1434    N        0.19544    0.99282    0.48740    1.000
    Si1435   Si       0.13308    0.00132    0.42252    1.000
    Si1436   Si       0.18644    0.00099    0.38181    1.000
    N1437    N        0.13414    0.95983    0.44031    1.000
    N1438    N        0.11073    0.00979    0.38658    1.000
    N1439    N        0.05934    0.94973    0.33474    1.000
    N1440    N        0.01028    0.98064    0.52348    1.000
    Si1441   Si       0.04265    0.99277    0.49915    1.000
    Si1442   Si       0.99369    0.95315    0.55412    1.000
    N1443    N        0.13133    0.97579    0.51397    1.000
    Si1444   Si       0.14748    0.99180    0.55174    1.000
    N1445    N        0.16056    0.96343    0.57962    1.000
    N1446    N        0.23016    0.98725    0.58707    1.000
    Si1447   Si       0.20424    0.95411    0.59333    1.000
    Si1448   Si       0.02565    0.95731    0.62535    1.000
    N1449    N        0.00249    0.98935    0.63850    1.000
    N1450    N        0.02124    0.99488    0.71782    1.000
    Si1451   Si       0.09042    0.98274    0.66364    1.000
    N1452    N        0.06606    0.95828    0.63737    1.000
    Si1453   Si       0.11146    0.96574    0.73580    1.000
    N1454    N        0.09753    0.95180    0.69713    1.000
    N1455    N        0.14216    0.99313    0.74212    1.000
    Si1456   Si       0.14844    0.95349    0.62210    1.000
    N1457    N        0.22745    0.99187    0.73969    1.000
    N1458    N        0.12762    0.98762    0.63989    1.000
    N1459    N        0.06166    0.98516    0.82790    1.000
    N1460    N        0.07714    0.97499    0.75987    1.000
    Si1461   Si       0.08542    0.96036    0.80054    1.000
    Si1462   Si       0.03493    0.98097    0.75767    1.000
    Si1463   Si       0.08097    0.99884    0.86481    1.000
    Si1464   Si       0.01928    0.00287    0.82840    1.000
    N1465    N        0.99465    0.96856    0.83582    1.000
    N1466    N        0.18406    0.96279    0.85481    1.000
    N1467    N        0.12751    0.97371    0.80439    1.000
    N1468    N        0.18783    0.98282    0.78612    1.000
    Si1469   Si       0.22553    0.97763    0.86123    1.000
    Si1470   Si       0.16528    0.95782    0.81475    1.000
    Si1471   Si       0.20244    0.95716    0.75077    1.000
    N1472    N        0.10664    0.96701    0.87363    1.000
    N1473    N        0.02332    0.97707    0.95270    1.000
    Si1474   Si       0.02443    0.98192    0.90997    1.000
    Si1475   Si       0.99687    0.96435    0.98313    1.000
    N1476    N        0.10116    0.95661    0.94172    1.000
    N1477    N        0.17613    0.98288    0.96617    1.000
    N1478    N        0.22965    0.95877    0.89945    1.000
    Si1479   Si       0.15002    0.96883    0.88129    1.000
    N1480    N        0.34505    0.04903    0.01932    1.000
    N1481    N        0.34665    0.02533    0.10691    1.000
    Si1482   Si       0.30369    0.02600    0.09950    1.000
    N1483    N        0.27970    0.06118    0.10698    1.000
    N1484    N        0.24983    0.03583    0.00794    1.000
    N1485    N        0.29343    0.01607    0.05825    1.000
    Si1486   Si       0.25254    0.01086    0.04756    1.000
    Si1487   Si       0.32668    0.01030    0.02889    1.000
    Si1488   Si       0.43770    0.02707    0.05121    1.000
    N1489    N        0.41662    0.02139    0.01543    1.000
    Si1490   Si       0.38674    0.05213    0.00592    1.000
    N1491    N        0.41422    0.01593    0.08443    1.000
    N1492    N        0.47192    0.02440    0.12175    1.000
    Si1493   Si       0.42748    0.02903    0.12544    1.000
    N1494    N        0.40097    0.06178    0.13342    1.000
    Si1495   Si       0.35678    0.05979    0.13173    1.000
    Si1496   Si       0.25329    0.04216    0.23008    1.000
    N1497    N        0.26982    0.03695    0.19017    1.000
    N1498    N        0.35146    0.02388    0.22082    1.000
    Si1499   Si       0.25602    0.01385    0.15732    1.000
    N1500    N        0.47624    0.02905    0.19509    1.000
    Si1501   Si       0.36309    0.06375    0.20650    1.000
    N1502    N        0.40640    0.06110    0.19893    1.000
    Si1503   Si       0.43364    0.02604    0.19592    1.000
    Si1504   Si       0.32705    0.04147    0.25181    1.000
    N1505    N        0.34947    0.03325    0.35651    1.000
    N1506    N        0.33429    0.02561    0.29056    1.000
    Si1507   Si       0.25483    0.01955    0.35430    1.000
    N1508    N        0.28545    0.03005    0.25559    1.000
    Si1509   Si       0.47430    0.00919    0.44685    1.000
    Si1510   Si       0.36215    0.04746    0.31576    1.000
    N1511    N        0.40244    0.03538    0.30216    1.000
    N1512    N        0.46188    0.03877    0.25895    1.000
    Si1513   Si       0.44289    0.04887    0.36162    1.000
    Si1514   Si       0.43646    0.05968    0.28800    1.000
    N1515    N        0.45912    0.06188    0.32385    1.000
    Si1516   Si       0.28488    0.01817    0.42416    1.000
    N1517    N        0.28654    0.03116    0.38291    1.000
    N1518    N        0.32173    0.03210    0.44068    1.000
    N1519    N        0.25014    0.03468    0.44199    1.000
    Si1520   Si       0.35813    0.01232    0.44566    1.000
    N1521    N        0.37983    0.02945    0.47815    1.000
    N1522    N        0.38659    0.01868    0.41210    1.000
    N1523    N        0.45273    0.04714    0.44775    1.000
    Si1524   Si       0.37160    0.05316    0.38961    1.000
    Si1525   Si       0.42042    0.04778    0.48127    1.000
    N1526    N        0.47781    0.06339    0.38319    1.000
    N1527    N        0.42857    0.00872    0.36068    1.000
    N1528    N        0.29362    0.02116    0.56594    1.000
    Si1529   Si       0.31679    0.05786    0.56119    1.000
    N1530    N        0.35629    0.06074    0.53590    1.000
    Si1531   Si       0.35842    0.02149    0.51719    1.000
    N1532    N        0.25042    0.03309    0.51946    1.000
    Si1533   Si       0.43742    0.02294    0.69518    1.000
    N1534    N        0.40964    0.04426    0.58568    1.000
    N1535    N        0.43853    0.03558    0.51853    1.000
    Si1536   Si       0.41913    0.01815    0.55263    1.000
    N1537    N        0.48119    0.04711    0.61765    1.000
    Si1538   Si       0.43613    0.04438    0.62133    1.000
    N1539    N        0.24168    0.01257    0.66364    1.000
    Si1540   Si       0.26378    0.04533    0.68739    1.000
    Si1541   Si       0.33210    0.02148    0.69633    1.000
    N1542    N        0.35062    0.04827    0.66840    1.000
    N1543    N        0.29052    0.02170    0.71261    1.000
    N1544    N        0.35461    0.04324    0.73108    1.000
    Si1545   Si       0.48707    0.05101    0.74401    1.000
    N1546    N        0.47968    0.02511    0.70905    1.000
    N1547    N        0.43065    0.01229    0.65221    1.000
    N1548    N        0.41922    0.06208    0.69570    1.000
    N1549    N        0.31716    0.03269    0.79652    1.000
    Si1550   Si       0.31014    0.05315    0.83513    1.000
    N1551    N        0.30246    0.02136    0.86450    1.000
    Si1552   Si       0.32766    0.06174    0.76279    1.000
    Si1553   Si       0.38903    0.06104    0.80954    1.000
    N1554    N        0.47513    0.02656    0.78057    1.000
    N1555    N        0.38672    0.04690    0.85015    1.000
    N1556    N        0.39755    0.02657    0.78418    1.000
    N1557    N        0.45216    0.05234    0.86661    1.000
    Si1558   Si       0.41856    0.02502    0.86718    1.000
    Si1559   Si       0.37790    0.01231    0.74912    1.000
    N1560    N        0.24387    0.03883    0.78740    1.000
    Si1561   Si       0.24190    0.03611    0.90444    1.000
    N1562    N        0.27084    0.01190    0.92888    1.000
    N1563    N        0.29523    0.06126    0.96479    1.000
    Si1564   Si       0.30438    0.03424    0.90561    1.000
    N1565    N        0.34715    0.03841    0.91054    1.000
    Si1566   Si       0.27482    0.02417    0.97210    1.000
    Si1567   Si       0.36356    0.06760    0.88100    1.000
    N1568    N        0.48105    0.02972    0.93770    1.000
    N1569    N        0.38720    0.05706    0.96348    1.000
    Si1570   Si       0.38049    0.02446    0.93752    1.000
    Si1571   Si       0.45996    0.05841    0.91004    1.000
    N1572    N        0.41506    0.03087    0.91103    1.000
    N1573    N        0.28931    0.09283    0.02467    1.000
    Si1574   Si       0.30165    0.10079    0.10575    1.000
    N1575    N        0.34599    0.09287    0.10483    1.000
    Si1576   Si       0.25198    0.08113    0.00875    1.000
    N1577    N        0.45844    0.06634    0.05003    1.000
    Si1578   Si       0.43487    0.10144    0.04528    1.000
    N1579    N        0.40148    0.08869    0.02074    1.000
    N1580    N        0.41692    0.11339    0.08158    1.000
    Si1581   Si       0.37289    0.11986    0.08442    1.000
    Si1582   Si       0.44880    0.12155    0.11107    1.000
    N1583    N        0.49143    0.11125    0.09821    1.000
    Si1584   Si       0.41486    0.08918    0.16528    1.000
    N1585    N        0.29540    0.12268    0.20925    1.000
    N1586    N        0.28805    0.11436    0.14380    1.000
    N1587    N        0.34276    0.07652    0.17115    1.000
    Si1588   Si       0.31752    0.11134    0.17447    1.000
    N1589    N        0.34218    0.08337    0.23889    1.000
    Si1590   Si       0.32301    0.12224    0.24357    1.000
    Si1591   Si       0.25219    0.12268    0.21471    1.000
    N1592    N        0.24300    0.08419    0.23539    1.000
    N1593    N        0.45365    0.09495    0.14719    1.000
    N1594    N        0.45765    0.11934    0.21809    1.000
    N1595    N        0.29109    0.09101    0.34112    1.000
    Si1596   Si       0.32244    0.11397    0.31968    1.000
    Si1597   Si       0.24787    0.09313    0.33649    1.000
    N1598    N        0.35996    0.09063    0.31498    1.000
    N1599    N        0.30526    0.12267    0.28164    1.000
    Si1600   Si       0.42923    0.11826    0.46175    1.000
    N1601    N        0.42196    0.09968    0.27841    1.000
    Si1602   Si       0.39504    0.11790    0.30952    1.000
    N1603    N        0.40870    0.07250    0.37707    1.000
    N1604    N        0.48835    0.12507    0.34612    1.000
    N1605    N        0.34279    0.08720    0.39586    1.000
    N1606    N        0.28172    0.08988    0.41548    1.000
    N1607    N        0.32602    0.09388    0.47615    1.000
    N1608    N        0.25340    0.09486    0.47324    1.000
    Si1609   Si       0.32094    0.10064    0.43364    1.000
    Si1610   Si       0.24696    0.07829    0.43425    1.000
    Si1611   Si       0.30156    0.07233    0.37967    1.000
    Si1612   Si       0.42102    0.11448    0.38147    1.000
    N1613    N        0.46643    0.10944    0.48391    1.000
    N1614    N        0.44382    0.11063    0.41928    1.000
    N1615    N        0.40255    0.08873    0.48168    1.000
    Si1616   Si       0.47129    0.07773    0.42421    1.000
    N1617    N        0.29123    0.08283    0.53885    1.000
    Si1618   Si       0.28820    0.10108    0.49865    1.000
    Si1619   Si       0.36317    0.09343    0.50304    1.000
    Si1620   Si       0.24948    0.06874    0.54497    1.000
    N1621    N        0.39294    0.11017    0.57678    1.000
    Si1622   Si       0.41231    0.12056    0.61468    1.000
    Si1623   Si       0.37763    0.07112    0.57594    1.000
    N1624    N        0.48398    0.11849    0.54977    1.000
    N1625    N        0.32486    0.11307    0.64862    1.000
    Si1626   Si       0.28237    0.11106    0.65904    1.000
    Si1627   Si       0.32817    0.06985    0.63728    1.000
    N1628    N        0.25595    0.12403    0.62764    1.000
    Si1629   Si       0.37643    0.06934    0.69723    1.000
    N1630    N        0.37722    0.11223    0.69791    1.000
    N1631    N        0.48496    0.09611    0.67668    1.000
    Si1632   Si       0.44869    0.09539    0.70154    1.000
    N1633    N        0.45885    0.08163    0.74430    1.000
    Si1634   Si       0.47892    0.08857    0.63481    1.000
    N1635    N        0.43510    0.08768    0.62929    1.000
    N1636    N        0.27468    0.13086    0.69795    1.000
    N1637    N        0.33783    0.06877    0.59676    1.000
    N1638    N        0.28725    0.06596    0.65818    1.000
    N1639    N        0.33375    0.08529    0.85334    1.000
    N1640    N        0.35812    0.08262    0.78662    1.000
    N1641    N        0.29368    0.08905    0.75529    1.000
    Si1642   Si       0.25310    0.07418    0.76010    1.000
    N1643    N        0.27061    0.07533    0.83461    1.000
    Si1644   Si       0.26698    0.09867    0.87115    1.000
    Si1645   Si       0.35541    0.12473    0.77552    1.000
    Si1646   Si       0.43619    0.10493    0.77229    1.000
    Si1647   Si       0.45280    0.08954    0.84330    1.000
    N1648    N        0.42857    0.08155    0.80742    1.000
    Si1649   Si       0.27414    0.09400    0.94282    1.000
    N1650    N        0.33908    0.11184    0.98802    1.000
    N1651    N        0.27402    0.06970    0.90396    1.000
    N1652    N        0.44337    0.09183    0.93254    1.000
    Si1653   Si       0.47865    0.11630    0.93158    1.000
    N1654    N        0.38528    0.09806    0.90042    1.000
    Si1655   Si       0.40266    0.09225    0.94109    1.000
    N1656    N        0.39894    0.12489    0.96870    1.000
    Si1657   Si       0.33104    0.12874    0.85052    1.000
    Si1658   Si       0.31904    0.07510    0.99842    1.000
    Si1659   Si       0.26952    0.16849    0.08520    1.000
    N1660    N        0.30649    0.16178    0.00813    1.000
    N1661    N        0.29496    0.13501    0.07702    1.000
    N1662    N        0.35468    0.12670    0.04607    1.000
    Si1663   Si       0.31194    0.13030    0.03660    1.000
    N1664    N        0.37067    0.15610    0.10732    1.000
    N1665    N        0.39561    0.17056    0.01448    1.000
    Si1666   Si       0.43906    0.17012    0.01304    1.000
    N1667    N        0.45821    0.13233    0.02298    1.000
    N1668    N        0.25284    0.16815    0.12403    1.000
    N1669    N        0.33941    0.14934    0.16997    1.000
    N1670    N        0.34242    0.16256    0.23615    1.000
    Si1671   Si       0.32424    0.17775    0.19960    1.000
    Si1672   Si       0.24690    0.12747    0.13818    1.000
    Si1673   Si       0.48876    0.16991    0.15431    1.000
    N1674    N        0.45500    0.16112    0.12611    1.000
    N1675    N        0.41723    0.16224    0.23912    1.000
    N1676    N        0.40737    0.13157    0.17066    1.000
    Si1677   Si       0.37767    0.15515    0.15176    1.000
    N1678    N        0.46673    0.18109    0.19143    1.000
    Si1679   Si       0.43469    0.15350    0.19969    1.000
    Si1680   Si       0.37873    0.12601    0.00707    1.000
    N1681    N        0.33653    0.14323    0.34866    1.000
    Si1682   Si       0.26603    0.14161    0.28385    1.000
    N1683    N        0.26961    0.17386    0.31368    1.000
    Si1684   Si       0.35777    0.17803    0.33006    1.000
    N1685    N        0.24781    0.15503    0.24449    1.000
    N1686    N        0.37806    0.15626    0.29773    1.000
    N1687    N        0.47082    0.15070    0.28376    1.000
    Si1688   Si       0.45937    0.14846    0.32586    1.000
    Si1689   Si       0.38010    0.17600    0.25859    1.000
    Si1690   Si       0.44150    0.13044    0.25665    1.000
    N1691    N        0.42437    0.12765    0.34044    1.000
    Si1692   Si       0.27255    0.17866    0.48532    1.000
    N1693    N        0.32246    0.14240    0.42080    1.000
    Si1694   Si       0.34859    0.13049    0.38783    1.000
    Si1695   Si       0.31118    0.18231    0.43085    1.000
    Si1696   Si       0.41571    0.18357    0.49738    1.000
    N1697    N        0.31649    0.18560    0.47603    1.000
    Si1698   Si       0.40455    0.17281    0.42472    1.000
    N1699    N        0.38841    0.14086    0.40042    1.000
    N1700    N        0.41854    0.15893    0.46152    1.000
    Si1701   Si       0.32852    0.16301    0.51325    1.000
    N1702    N        0.25927    0.16950    0.57107    1.000
    N1703    N        0.28777    0.14267    0.51164    1.000
    Si1704   Si       0.25913    0.16530    0.61464    1.000
    N1705    N        0.35991    0.13407    0.52178    1.000
    Si1706   Si       0.23898    0.15140    0.53490    1.000
    N1707    N        0.42923    0.15315    0.52758    1.000
    Si1708   Si       0.39304    0.14464    0.54952    1.000
    Si1709   Si       0.46889    0.13940    0.51700    1.000
    N1710    N        0.43742    0.15516    0.60922    1.000
    Si1711   Si       0.47808    0.16364    0.60625    1.000
    N1712    N        0.38675    0.17981    0.57406    1.000
    Si1713   Si       0.40256    0.18319    0.61546    1.000
    Si1714   Si       0.35735    0.13725    0.66854    1.000
    N1715    N        0.33618    0.17245    0.67995    1.000
    N1716    N        0.33392    0.14091    0.74142    1.000
    Si1717   Si       0.28994    0.13083    0.73879    1.000
    Si1718   Si       0.34333    0.18266    0.72411    1.000
    N1719    N        0.38656    0.14553    0.63898    1.000
    N1720    N        0.44428    0.13829    0.71352    1.000
    Si1721   Si       0.47480    0.15485    0.74169    1.000
    Si1722   Si       0.40095    0.13950    0.72073    1.000
    N1723    N        0.38817    0.18179    0.71707    1.000
    Si1724   Si       0.26382    0.16863    0.84801    1.000
    N1725    N        0.33520    0.14374    0.81027    1.000
    N1726    N        0.26745    0.16341    0.75968    1.000
    N1727    N        0.28947    0.13469    0.86384    1.000
    Si1728   Si       0.40337    0.13508    0.88178    1.000
    N1729    N        0.36484    0.15226    0.86766    1.000
    Si1730   Si       0.45390    0.15447    0.81962    1.000
    N1731    N        0.46595    0.13491    0.78205    1.000
    N1732    N        0.43597    0.12846    0.85266    1.000
    N1733    N        0.39929    0.12774    0.76295    1.000
    Si1734   Si       0.28350    0.17224    0.91747    1.000
    N1735    N        0.35565    0.16977    0.95509    1.000
    N1736    N        0.29454    0.13363    0.93657    1.000
    Si1737   Si       0.32263    0.14694    0.96939    1.000
    Si1738   Si       0.45053    0.18625    0.92669    1.000
    N1739    N        0.43692    0.18143    0.96735    1.000
    N1740    N        0.41597    0.16201    0.91298    1.000
    Si1741   Si       0.39830    0.16351    0.95304    1.000
    N1742    N        0.48458    0.15814    0.92360    1.000
    N1743    N        0.29157    0.20405    0.07905    1.000
    N1744    N        0.35413    0.21200    0.05071    1.000
    Si1745   Si       0.31310    0.22904    0.05102    1.000
    N1746    N        0.29235    0.23290    0.01436    1.000
    Si1747   Si       0.30545    0.23888    0.10912    1.000
    N1748    N        0.34546    0.22580    0.11703    1.000
    Si1749   Si       0.36896    0.19856    0.08928    1.000
    Si1750   Si       0.37674    0.21069    0.01353    1.000
    N1751    N        0.41242    0.20660    0.08512    1.000
    Si1752   Si       0.43541    0.22602    0.05459    1.000
    N1753    N        0.46137    0.19906    0.03237    1.000
    N1754    N        0.41034    0.23653    0.02002    1.000
    N1755    N        0.33561    0.21726    0.18281    1.000
    Si1756   Si       0.29421    0.22983    0.18137    1.000
    N1757    N        0.27815    0.23348    0.14245    1.000
    Si1758   Si       0.25651    0.19580    0.23549    1.000
    N1759    N        0.28197    0.19072    0.20102    1.000
    Si1760   Si       0.24225    0.20866    0.13446    1.000
    Si1761   Si       0.47503    0.21680    0.21289    1.000
    N1762    N        0.43987    0.24122    0.20576    1.000
    Si1763   Si       0.36542    0.22654    0.15527    1.000
    N1764    N        0.45204    0.22780    0.13712    1.000
    Si1765   Si       0.42881    0.19554    0.12415    1.000
    N1766    N        0.39665    0.19450    0.15372    1.000
    N1767    N        0.33572    0.20699    0.30690    1.000
    N1768    N        0.27962    0.22171    0.26584    1.000
    Si1769   Si       0.29299    0.21019    0.30765    1.000
    Si1770   Si       0.35450    0.23897    0.28427    1.000
    Si1771   Si       0.41985    0.20919    0.36034    1.000
    N1772    N        0.37760    0.20159    0.36074    1.000
    N1773    N        0.38177    0.21938    0.25610    1.000
    N1774    N        0.45216    0.19008    0.33865    1.000
    N1775    N        0.48936    0.20948    0.25261    1.000
    N1776    N        0.25259    0.19454    0.37762    1.000
    Si1777   Si       0.28053    0.22753    0.37977    1.000
    Si1778   Si       0.35215    0.21329    0.47244    1.000
    N1779    N        0.31491    0.20971    0.39864    1.000
    Si1780   Si       0.35901    0.21751    0.39834    1.000
    N1781    N        0.43820    0.21926    0.48616    1.000
    Si1782   Si       0.46405    0.22426    0.41603    1.000
    N1783    N        0.36795    0.19707    0.43443    1.000
    N1784    N        0.43137    0.19950    0.40255    1.000
    Si1785   Si       0.48111    0.21357    0.48739    1.000
    N1786    N        0.26675    0.18078    0.44035    1.000
    N1787    N        0.28843    0.23996    0.33858    1.000
    N1788    N        0.26625    0.21094    0.51585    1.000
    Si1789   Si       0.28445    0.20044    0.55473    1.000
    N1790    N        0.32536    0.19038    0.54698    1.000
    N1791    N        0.28691    0.23998    0.57635    1.000
    Si1792   Si       0.36653    0.20632    0.54664    1.000
    Si1793   Si       0.28563    0.23370    0.62026    1.000
    N1794    N        0.37579    0.19822    0.50516    1.000
    N1795    N        0.29527    0.19173    0.62137    1.000
    N1796    N        0.36795    0.20778    0.63173    1.000
    N1797    N        0.34141    0.22843    0.71701    1.000
    Si1798   Si       0.32893    0.20000    0.64797    1.000
    N1799    N        0.49186    0.19239    0.63806    1.000
    Si1800   Si       0.40907    0.22353    0.70777    1.000
    N1801    N        0.42838    0.22027    0.62880    1.000
    Si1802   Si       0.46415    0.22439    0.64988    1.000
    N1803    N        0.44989    0.21726    0.69163    1.000
    Si1804   Si       0.48341    0.22378    0.72064    1.000
    Si1805   Si       0.23849    0.24073    0.49875    1.000
    Si1806   Si       0.26807    0.20384    0.77999    1.000
    N1807    N        0.33985    0.21342    0.84516    1.000
    N1808    N        0.34677    0.19944    0.77237    1.000
    N1809    N        0.28299    0.23937    0.75887    1.000
    N1810    N        0.28527    0.19141    0.81676    1.000
    Si1811   Si       0.33036    0.18715    0.81021    1.000
    Si1812   Si       0.36536    0.23227    0.75432    1.000
    Si1813   Si       0.44141    0.21698    0.77667    1.000
    N1814    N        0.40974    0.23301    0.75020    1.000
    N1815    N        0.46919    0.19574    0.74980    1.000
    N1816    N        0.43018    0.18837    0.80749    1.000
    N1817    N        0.25661    0.18748    0.88668    1.000
    N1818    N        0.32006    0.19545    0.90679    1.000
    Si1819   Si       0.34614    0.21015    0.94043    1.000
    N1820    N        0.35607    0.23025    0.97850    1.000
    Si1821   Si       0.25025    0.22990    0.88492    1.000
    Si1822   Si       0.35588    0.19367    0.88031    1.000
    N1823    N        0.27635    0.19586    0.95414    1.000
    Si1824   Si       0.28416    0.19517    0.99649    1.000
    N1825    N        0.37892    0.21881    0.91127    1.000
    N1826    N        0.44978    0.22643    0.91082    1.000
    N1827    N        0.46797    0.24623    0.79384    1.000
    N1828    N        0.31276    0.26559    0.07485    1.000
    Si1829   Si       0.28157    0.27232    0.99991    1.000
    N1830    N        0.45113    0.26060    0.07469    1.000
    Si1831   Si       0.46957    0.25983    0.11448    1.000
    N1832    N        0.44526    0.30098    0.01906    1.000
    Si1833   Si       0.44589    0.30194    0.06157    1.000
    N1834    N        0.39136    0.28556    0.22565    1.000
    N1835    N        0.28989    0.26386    0.20835    1.000
    Si1836   Si       0.37238    0.29814    0.18523    1.000
    N1837    N        0.44712    0.29010    0.13885    1.000
    Si1838   Si       0.41416    0.24832    0.24046    1.000
    Si1839   Si       0.43073    0.25572    0.16501    1.000
    N1840    N        0.38698    0.26312    0.16397    1.000
    Si1841   Si       0.41821    0.27344    0.99866    1.000
    N1842    N        0.32390    0.26852    0.27852    1.000
    N1843    N        0.25702    0.28921    0.26502    1.000
    Si1844   Si       0.29386    0.28295    0.35513    1.000
    Si1845   Si       0.34707    0.29521    0.30554    1.000
    Si1846   Si       0.29083    0.26306    0.25172    1.000
    Si1847   Si       0.24180    0.29378    0.30478    1.000
    N1848    N        0.39970    0.27912    0.47667    1.000
    N1849    N        0.48612    0.24947    0.31735    1.000
    N1850    N        0.38193    0.26784    0.30202    1.000
    Si1851   Si       0.42419    0.26980    0.31260    1.000
    N1852    N        0.42259    0.25365    0.35593    1.000
    N1853    N        0.44111    0.25642    0.27507    1.000
    Si1854   Si       0.48443    0.28860    0.33843    1.000
    Si1855   Si       0.48432    0.24780    0.27363    1.000
    N1856    N        0.26141    0.25616    0.46450    1.000
    Si1857   Si       0.29823    0.27408    0.47521    1.000
    N1858    N        0.27669    0.26878    0.39420    1.000
    N1859    N        0.33496    0.25268    0.46517    1.000
    Si1860   Si       0.24715    0.27110    0.42646    1.000
    N1861    N        0.33432    0.29956    0.34753    1.000
    N1862    N        0.44147    0.25902    0.42553    1.000
    Si1863   Si       0.43598    0.25854    0.46835    1.000
    Si1864   Si       0.41368    0.27221    0.39460    1.000
    Si1865   Si       0.36593    0.27685    0.44779    1.000
    N1866    N        0.37321    0.25765    0.40920    1.000
    Si1867   Si       0.27426    0.27242    0.55063    1.000
    N1868    N        0.30429    0.27925    0.51857    1.000
    N1869    N        0.37396    0.24704    0.55225    1.000
    Si1870   Si       0.38578    0.28344    0.57021    1.000
    N1871    N        0.39058    0.27772    0.61296    1.000
    N1872    N        0.42192    0.29661    0.54975    1.000
    N1873    N        0.48764    0.26725    0.72892    1.000
    Si1874   Si       0.42303    0.30148    0.50637    1.000
    N1875    N        0.34232    0.29711    0.69461    1.000
    Si1876   Si       0.32216    0.25868    0.69117    1.000
    N1877    N        0.28100    0.26510    0.69955    1.000
    Si1878   Si       0.26027    0.28674    0.66898    1.000
    N1879    N        0.25467    0.26116    0.63341    1.000
    Si1880   Si       0.25414    0.25043    0.72902    1.000
    Si1881   Si       0.38515    0.29618    0.69734    1.000
    N1882    N        0.48578    0.26157    0.65206    1.000
    N1883    N        0.39680    0.25641    0.68181    1.000
    N1884    N        0.31727    0.24346    0.65052    1.000
    Si1885   Si       0.39340    0.24271    0.63938    1.000
    N1886    N        0.46251    0.28081    0.49373    1.000
    Si1887   Si       0.30712    0.27023    0.77751    1.000
    N1888    N        0.34836    0.27016    0.76912    1.000
    N1889    N        0.29613    0.26376    0.81975    1.000
    Si1890   Si       0.25798    0.27919    0.83569    1.000
    N1891    N        0.34899    0.28064    0.85906    1.000
    Si1892   Si       0.31831    0.25024    0.85394    1.000
    Si1893   Si       0.39092    0.29537    0.85320    1.000
    N1894    N        0.48626    0.27145    0.85569    1.000
    Si1895   Si       0.40348    0.25438    0.91931    1.000
    Si1896   Si       0.45568    0.25808    0.88109    1.000
    Si1897   Si       0.27641    0.29765    0.89538    1.000
    N1898    N        0.28365    0.25701    0.88253    1.000
    N1899    N        0.31020    0.28341    0.96942    1.000
    Si1900   Si       0.35348    0.27358    0.96771    1.000
    Si1901   Si       0.34789    0.30612    0.89501    1.000
    N1902    N        0.47342    0.28448    0.91285    1.000
    N1903    N        0.41573    0.26919    0.87929    1.000
    Si1904   Si       0.46944    0.24877    0.94503    1.000
    N1905    N        0.36873    0.28443    0.92768    1.000
    N1906    N        0.42547    0.26206    0.95738    1.000
    N1907    N        0.37892    0.29318    0.99691    1.000
    N1908    N        0.27131    0.31973    0.08887    1.000
    N1909    N        0.34220    0.32432    0.05166    1.000
    Si1910   Si       0.26459    0.34436    0.00653    1.000
    N1911    N        0.31910    0.35100    0.11634    1.000
    N1912    N        0.28195    0.30761    0.02288    1.000
    Si1913   Si       0.35782    0.32900    0.01112    1.000
    Si1914   Si       0.30292    0.30800    0.06183    1.000
    N1915    N        0.41256    0.32102    0.08227    1.000
    N1916    N        0.48031    0.32601    0.07190    1.000
    Si1917   Si       0.38031    0.34373    0.06690    1.000
    N1918    N        0.38536    0.35964    0.02643    1.000
    N1919    N        0.33206    0.30213    0.16743    1.000
    Si1920   Si       0.27753    0.34449    0.12410    1.000
    N1921    N        0.29219    0.32832    0.22005    1.000
    N1922    N        0.26507    0.31759    0.15598    1.000
    Si1923   Si       0.34242    0.34233    0.15241    1.000
    N1924    N        0.36230    0.33881    0.21184    1.000
    Si1925   Si       0.29177    0.30217    0.18630    1.000
    N1926    N        0.45466    0.35097    0.13119    1.000
    Si1927   Si       0.38270    0.32300    0.24597    1.000
    Si1928   Si       0.48510    0.35276    0.21562    1.000
    Si1929   Si       0.42074    0.32205    0.12645    1.000
    Si1930   Si       0.48109    0.31783    0.14525    1.000
    N1931    N        0.38568    0.32808    0.15165    1.000
    Si1932   Si       0.32483    0.35922    0.21758    1.000
    Si1933   Si       0.25508    0.35162    0.31937    1.000
    N1934    N        0.26879    0.31235    0.33547    1.000
    N1935    N        0.35608    0.32915    0.28133    1.000
    N1936    N        0.27368    0.35923    0.28043    1.000
    Si1937   Si       0.25918    0.33069    0.24897    1.000
    N1938    N        0.40125    0.31387    0.38817    1.000
    Si1939   Si       0.36621    0.32500    0.36270    1.000
    N1940    N        0.48439    0.33915    0.25804    1.000
    N1941    N        0.41594    0.34226    0.26714    1.000
    Si1942   Si       0.43275    0.32837    0.35784    1.000
    Si1943   Si       0.45311    0.33685    0.28875    1.000
    N1944    N        0.39386    0.34218    0.33460    1.000
    Si1945   Si       0.38608    0.35773    0.29637    1.000
    N1946    N        0.44768    0.30657    0.31993    1.000
    N1947    N        0.35244    0.31857    0.44548    1.000
    N1948    N        0.28691    0.31586    0.46153    1.000
    Si1949   Si       0.24735    0.33651    0.45768    1.000
    Si1950   Si       0.32119    0.34020    0.46775    1.000
    N1951    N        0.35472    0.35713    0.38955    1.000
    N1952    N        0.46883    0.30586    0.37728    1.000
    N1953    N        0.47752    0.35742    0.42759    1.000
    Si1954   Si       0.37932    0.33816    0.41842    1.000
    N1955    N        0.32681    0.34505    0.51230    1.000
    Si1956   Si       0.27558    0.34908    0.58915    1.000
    N1957    N        0.35164    0.31415    0.56914    1.000
    Si1958   Si       0.35435    0.35222    0.59023    1.000
    Si1959   Si       0.31785    0.31260    0.54157    1.000
    N1960    N        0.28167    0.31111    0.56783    1.000
    N1961    N        0.24491    0.34478    0.62068    1.000
    Si1962   Si       0.45595    0.31433    0.56748    1.000
    N1963    N        0.39240    0.34928    0.61341    1.000
    N1964    N        0.44936    0.31291    0.61050    1.000
    N1965    N        0.45209    0.35888    0.55805    1.000
    N1966    N        0.27967    0.32763    0.67375    1.000
    Si1967   Si       0.31851    0.33554    0.68998    1.000
    N1968    N        0.31996    0.35912    0.72776    1.000
    N1969    N        0.40365    0.32423    0.66998    1.000
    N1970    N        0.39663    0.31141    0.73866    1.000
    Si1971   Si       0.48311    0.30316    0.63418    1.000
    Si1972   Si       0.41087    0.31140    0.62918    1.000
    Si1973   Si       0.48850    0.34966    0.70615    1.000
    N1974    N        0.48591    0.31896    0.67547    1.000
    N1975    N        0.42930    0.34256    0.49662    1.000
    N1976    N        0.34940    0.33792    0.78163    1.000
    Si1977   Si       0.30985    0.34583    0.76618    1.000
    N1978    N        0.26880    0.31611    0.85783    1.000
    Si1979   Si       0.24605    0.31278    0.76380    1.000
    Si1980   Si       0.26267    0.35856    0.85933    1.000
    N1981    N        0.28964    0.30703    0.76120    1.000
    N1982    N        0.46729    0.33777    0.96404    1.000
    Si1983   Si       0.43322    0.33595    0.80618    1.000
    N1984    N        0.45977    0.32080    0.77371    1.000
    Si1985   Si       0.42690    0.34127    0.74488    1.000
    N1986    N        0.40340    0.30568    0.81272    1.000
    Si1987   Si       0.30717    0.32453    0.95479    1.000
    N1988    N        0.34146    0.34586    0.97298    1.000
    N1989    N        0.31035    0.31649    0.91179    1.000
    N1990    N        0.27380    0.34992    0.96347    1.000
    N1991    N        0.37811    0.33181    0.87512    1.000
    Si1992   Si       0.48127    0.30976    0.99432    1.000
    N1993    N        0.43732    0.35126    0.91260    1.000
    Si1994   Si       0.47100    0.32517    0.92254    1.000
    Si1995   Si       0.37564    0.30300    0.77724    1.000
    N1996    N        0.23956    0.30391    0.91601    1.000
    N1997    N        0.26306    0.37891    0.03332    1.000
    N1998    N        0.32485    0.41125    0.05777    1.000
    Si1999   Si       0.32970    0.38781    0.09529    1.000
    N2000    N        0.45873    0.38271    0.20103    1.000
    N2001    N        0.37049    0.37553    0.09341    1.000
    N2002    N        0.43117    0.38712    0.07474    1.000
    N2003    N        0.44810    0.40050    0.00855    1.000
    Si2004   Si       0.40168    0.40538    0.10082    1.000
    Si2005   Si       0.40515    0.39418    0.01063    1.000
    Si2006   Si       0.45836    0.41225    0.05056    1.000
    Si2007   Si       0.46508    0.36318    0.08955    1.000
    N2008    N        0.26202    0.38476    0.13245    1.000
    Si2009   Si       0.29624    0.40569    0.15501    1.000
    N2010    N        0.31901    0.37278    0.17523    1.000
    N2011    N        0.32294    0.39562    0.23891    1.000
    N2012    N        0.32492    0.41867    0.12480    1.000
    Si2013   Si       0.45190    0.38555    0.15579    1.000
    N2014    N        0.41983    0.41149    0.14006    1.000
    Si2015   Si       0.28453    0.42011    0.03791    1.000
    N2016    N        0.31738    0.40261    0.31231    1.000
    N2017    N        0.25760    0.39039    0.34045    1.000
    Si2018   Si       0.29656    0.39356    0.27486    1.000
    Si2019   Si       0.29478    0.41166    0.34797    1.000
    Si2020   Si       0.43123    0.40848    0.29369    1.000
    N2021    N        0.38930    0.40027    0.29681    1.000
    Si2022   Si       0.46039    0.39966    0.34707    1.000
    N2023    N        0.46105    0.37794    0.30695    1.000
    N2024    N        0.44218    0.36923    0.36982    1.000
    Si2025   Si       0.34501    0.39988    0.39237    1.000
    N2026    N        0.24877    0.37841    0.44292    1.000
    N2027    N        0.30054    0.40235    0.39084    1.000
    N2028    N        0.31484    0.38106    0.45340    1.000
    Si2029   Si       0.28370    0.39854    0.43117    1.000
    Si2030   Si       0.34504    0.41323    0.46144    1.000
    Si2031   Si       0.40955    0.37567    0.47641    1.000
    Si2032   Si       0.44062    0.37800    0.41247    1.000
    N2033    N        0.40779    0.36381    0.43642    1.000
    N2034    N        0.37089    0.39150    0.48674    1.000
    Si2035   Si       0.35736    0.41978    0.31651    1.000
    Si2036   Si       0.30084    0.40325    0.56699    1.000
    Si2037   Si       0.35260    0.37832    0.52413    1.000
    N2038    N        0.26793    0.37705    0.55449    1.000
    N2039    N        0.33050    0.41398    0.53761    1.000
    N2040    N        0.31623    0.36839    0.59118    1.000
    N2041    N        0.43021    0.40736    0.59420    1.000
    Si2042   Si       0.46946    0.39334    0.58004    1.000
    Si2043   Si       0.45748    0.37392    0.51621    1.000
    N2044    N        0.37842    0.37211    0.55688    1.000
    Si2045   Si       0.41330    0.36898    0.58012    1.000
    N2046    N        0.48634    0.41631    0.54899    1.000
    N2047    N        0.43346    0.40554    0.49701    1.000
    Si2048   Si       0.35200    0.38960    0.72604    1.000
    Si2049   Si       0.33668    0.40296    0.66184    1.000
    N2050    N        0.33150    0.42077    0.70329    1.000
    N2051    N        0.38719    0.38236    0.70030    1.000
    N2052    N        0.44898    0.36481    0.71818    1.000
    Si2053   Si       0.38721    0.36485    0.65974    1.000
    N2054    N        0.37461    0.41042    0.64138    1.000
    Si2055   Si       0.48161    0.39548    0.64931    1.000
    N2056    N        0.43812    0.39593    0.65709    1.000
    Si2057   Si       0.42798    0.39928    0.69995    1.000
    Si2058   Si       0.41445    0.42211    0.63060    1.000
    N2059    N        0.34139    0.35908    0.66143    1.000
    Si2060   Si       0.31340    0.38931    0.82542    1.000
    N2061    N        0.35338    0.37952    0.83209    1.000
    Si2062   Si       0.24934    0.38131    0.79198    1.000
    N2063    N        0.29780    0.38310    0.86509    1.000
    N2064    N        0.29049    0.36854    0.79724    1.000
    N2065    N        0.35569    0.40500    0.76676    1.000
    Si2066   Si       0.37174    0.37391    0.79207    1.000
    Si2067   Si       0.47830    0.39693    0.83649    1.000
    N2068    N        0.41198    0.36436    0.77940    1.000
    N2069    N        0.45099    0.36266    0.83681    1.000
    Si2070   Si       0.25312    0.37580    0.93545    1.000
    N2071    N        0.28461    0.40610    0.92716    1.000
    N2072    N        0.34804    0.37985    0.91155    1.000
    Si2073   Si       0.31788    0.40622    0.89624    1.000
    Si2074   Si       0.35957    0.38022    0.95248    1.000
    N2075    N        0.34253    0.41665    0.96643    1.000
    Si2076   Si       0.36646    0.37268    0.87229    1.000
    Si2077   Si       0.44034    0.37570    0.87768    1.000
    N2078    N        0.40208    0.39705    0.88004    1.000
    N2079    N        0.46603    0.40936    0.87692    1.000
    N2080    N        0.40025    0.37961    0.96719    1.000
    Si2081   Si       0.43922    0.36756    0.95291    1.000
    N2082    N        0.46160    0.40464    0.94511    1.000
    Si2083   Si       0.35877    0.43865    0.05172    1.000
    N2084    N        0.27417    0.46462    0.05260    1.000
    Si2085   Si       0.35229    0.45357    0.12038    1.000
    N2086    N        0.34141    0.47744    0.03949    1.000
    N2087    N        0.43245    0.44955    0.19581    1.000
    N2088    N        0.44450    0.47847    0.12929    1.000
    N2089    N        0.38253    0.44326    0.08903    1.000
    N2090    N        0.38968    0.43330    0.02232    1.000
    Si2091   Si       0.42063    0.46643    0.02322    1.000
    N2092    N        0.44994    0.45464    0.05269    1.000
    N2093    N        0.28646    0.43219    0.19002    1.000
    Si2094   Si       0.30611    0.43429    0.22851    1.000
    Si2095   Si       0.25107    0.45617    0.18325    1.000
    N2096    N        0.32069    0.47427    0.23572    1.000
    N2097    N        0.24411    0.45111    0.14098    1.000
    Si2098   Si       0.41840    0.45372    0.15319    1.000
    Si2099   Si       0.45872    0.42417    0.21941    1.000
    N2100    N        0.37918    0.47147    0.15153    1.000
    N2101    N        0.32357    0.48237    0.10483    1.000
    Si2102   Si       0.45784    0.47908    0.08808    1.000
    N2103    N        0.29224    0.45587    0.34710    1.000
    N2104    N        0.34780    0.45959    0.30097    1.000
    N2105    N        0.27353    0.42859    0.25786    1.000
    N2106    N        0.35920    0.42258    0.35768    1.000
    N2107    N        0.41046    0.46729    0.45639    1.000
    N2108    N        0.43478    0.42268    0.41223    1.000
    N2109    N        0.44892    0.43059    0.26194    1.000
    N2110    N        0.43727    0.43314    0.33047    1.000
    Si2111   Si       0.46324    0.46996    0.27581    1.000
    Si2112   Si       0.44109    0.47522    0.34038    1.000
    Si2113   Si       0.30299    0.47139    0.45655    1.000
    N2114    N        0.33103    0.44974    0.48082    1.000
    N2115    N        0.27552    0.44043    0.44014    1.000
    N2116    N        0.36353    0.42395    0.42401    1.000
    Si2117   Si       0.39896    0.44770    0.41719    1.000
    Si2118   Si       0.41997    0.44664    0.49280    1.000
    Si2119   Si       0.47055    0.44256    0.40049    1.000
    Si2120   Si       0.34395    0.45240    0.52278    1.000
    N2121    N        0.28472    0.43640    0.58992    1.000
    Si2122   Si       0.29265    0.47629    0.57636    1.000
    N2123    N        0.38821    0.46052    0.51946    1.000
    Si2124   Si       0.47539    0.45695    0.53799    1.000
    N2125    N        0.44316    0.47681    0.55881    1.000
    Si2126   Si       0.27919    0.45502    0.63398    1.000
    N2127    N        0.25019    0.43680    0.70911    1.000
    Si2128   Si       0.29017    0.43406    0.69556    1.000
    N2129    N        0.28204    0.47459    0.67654    1.000
    N2130    N        0.42144    0.46286    0.63921    1.000
    N2131    N        0.48664    0.43891    0.64736    1.000
    Si2132   Si       0.45361    0.46086    0.66795    1.000
    N2133    N        0.43250    0.44186    0.70537    1.000
    Si2134   Si       0.41418    0.47811    0.72457    1.000
    N2135    N        0.38072    0.48006    0.58375    1.000
    N2136    N        0.29448    0.41703    0.65340    1.000
    N2137    N        0.37816    0.47083    0.74537    1.000
    N2138    N        0.45991    0.46737    0.49787    1.000
    Si2139   Si       0.33122    0.45689    0.84103    1.000
    Si2140   Si       0.28464    0.45372    0.78507    1.000
    N2141    N        0.30713    0.43207    0.81632    1.000
    N2142    N        0.31808    0.46527    0.76164    1.000
    Si2143   Si       0.35683    0.44785    0.77472    1.000
    N2144    N        0.25172    0.42615    0.77515    1.000
    N2145    N        0.36343    0.46525    0.81430    1.000
    N2146    N        0.47538    0.43792    0.81942    1.000
    N2147    N        0.41280    0.46175    0.85846    1.000
    Si2148   Si       0.45344    0.46892    0.84011    1.000
    Si2149   Si       0.46321    0.42814    0.98126    1.000
    N2150    N        0.34618    0.43634    0.87733    1.000
    Si2151   Si       0.30020    0.43120    0.95617    1.000
    N2152    N        0.31803    0.46391    0.93119    1.000
    N2153    N        0.24993    0.46386    0.94895    1.000
    Si2154   Si       0.35636    0.45670    0.95011    1.000
    Si2155   Si       0.25751    0.46768    0.99346    1.000
    N2156    N        0.39340    0.45337    0.92688    1.000
    Si2157   Si       0.47901    0.42807    0.91275    1.000
    Si2158   Si       0.38952    0.43794    0.88593    1.000
    N2159    N        0.46321    0.46922    0.91914    1.000
    Si2160   Si       0.42700    0.47606    0.94255    1.000
    N2161    N        0.43454    0.46055    0.98202    1.000
    N2162    N        0.28624    0.43461    0.99669    1.000
    Si2163   Si       0.30916    0.48958    0.06498    1.000
    N2164    N        0.28725    0.52953    0.06239    1.000
    Si2165   Si       0.25370    0.50568    0.04547    1.000
    N2166    N        0.27474    0.50468    0.00393    1.000
    N2167    N        0.45816    0.50827    0.19474    1.000
    Si2168   Si       0.36336    0.50324    0.01576    1.000
    N2169    N        0.45941    0.51891    0.06497    1.000
    N2170    N        0.40476    0.50575    0.02958    1.000
    Si2171   Si       0.46562    0.51103    0.15196    1.000
    N2172    N        0.26634    0.52213    0.12574    1.000
    Si2173   Si       0.30847    0.51373    0.13085    1.000
    N2174    N        0.26076    0.49706    0.19921    1.000
    Si2175   Si       0.30390    0.50500    0.20909    1.000
    N2176    N        0.32521    0.51205    0.16997    1.000
    N2177    N        0.38838    0.50616    0.20660    1.000
    Si2178   Si       0.42611    0.48809    0.21621    1.000
    Si2179   Si       0.36878    0.51149    0.16991    1.000
    N2180    N        0.30582    0.50536    0.30036    1.000
    Si2181   Si       0.26760    0.52550    0.30560    1.000
    Si2182   Si       0.33618    0.49083    0.27208    1.000
    N2183    N        0.33917    0.50310    0.36385    1.000
    N2184    N        0.24049    0.50065    0.32719    1.000
    Si2185   Si       0.26078    0.48171    0.36068    1.000
    N2186    N        0.36508    0.52301    0.27706    1.000
    N2187    N        0.43136    0.49504    0.25886    1.000
    N2188    N        0.40365    0.49426    0.33142    1.000
    Si2189   Si       0.40669    0.51501    0.29202    1.000
    Si2190   Si       0.38264    0.50994    0.36631    1.000
    N2191    N        0.47070    0.49169    0.31376    1.000
    Si2192   Si       0.24599    0.53241    0.41358    1.000
    N2193    N        0.32624    0.50296    0.43527    1.000
    N2194    N        0.27577    0.51103    0.38866    1.000
    Si2195   Si       0.31525    0.52010    0.39797    1.000
    N2196    N        0.28078    0.49338    0.48630    1.000
    Si2197   Si       0.47511    0.48761    0.46427    1.000
    Si2198   Si       0.47328    0.51427    0.39631    1.000
    N2199    N        0.45451    0.51669    0.43665    1.000
    N2200    N        0.39922    0.48747    0.39879    1.000
    Si2201   Si       0.41148    0.50652    0.43717    1.000
    N2202    N        0.46178    0.47768    0.37877    1.000
    N2203    N        0.25508    0.53959    0.26706    1.000
    Si2204   Si       0.34748    0.53702    0.45675    1.000
    Si2205   Si       0.32270    0.47976    0.33093    1.000
    Si2206   Si       0.30967    0.51151    0.51406    1.000
    N2207    N        0.25333    0.49624    0.56944    1.000
    N2208    N        0.30298    0.49022    0.61762    1.000
    N2209    N        0.34632    0.52891    0.50236    1.000
    N2210    N        0.31835    0.48160    0.54360    1.000
    N2211    N        0.40581    0.52903    0.53184    1.000
    Si2212   Si       0.45933    0.50887    0.58378    1.000
    N2213    N        0.42413    0.52732    0.60277    1.000
    Si2214   Si       0.40300    0.48939    0.54930    1.000
    Si2215   Si       0.39753    0.49396    0.61951    1.000
    N2216    N        0.41255    0.51218    0.69582    1.000
    N2217    N        0.28243    0.52134    0.73103    1.000
    N2218    N        0.34244    0.51164    0.70203    1.000
    Si2219   Si       0.32117    0.52662    0.62770    1.000
    Si2220   Si       0.29856    0.51062    0.69363    1.000
    Si2221   Si       0.34173    0.49680    0.74219    1.000
    N2222    N        0.47728    0.48929    0.69097    1.000
    N2223    N        0.36304    0.51446    0.63690    1.000
    Si2224   Si       0.37462    0.52610    0.67703    1.000
    Si2225   Si       0.48138    0.49841    0.73557    1.000
    N2226    N        0.48629    0.54517    0.66182    1.000
    Si2227   Si       0.45298    0.53623    0.69118    1.000
    Si2228   Si       0.26343    0.49826    0.83935    1.000
    N2229    N        0.26828    0.49229    0.79649    1.000
    Si2230   Si       0.26157    0.52481    0.76754    1.000
    N2231    N        0.34280    0.53162    0.76989    1.000
    N2232    N        0.30416    0.48602    0.85654    1.000
    N2233    N        0.37231    0.52904    0.83681    1.000
    Si2234   Si       0.39321    0.49102    0.83225    1.000
    N2235    N        0.43341    0.50373    0.81923    1.000
    Si2236   Si       0.43570    0.52327    0.78032    1.000
    N2237    N        0.48147    0.49664    0.86029    1.000
    N2238    N        0.44306    0.48893    0.75570    1.000
    Si2239   Si       0.46650    0.53295    0.83736    1.000
    N2240    N        0.28305    0.51659    0.90762    1.000
    Si2241   Si       0.31742    0.49122    0.89752    1.000
    N2242    N        0.35355    0.51256    0.90214    1.000
    Si2243   Si       0.24579    0.50221    0.92852    1.000
    N2244    N        0.36292    0.49257    0.97236    1.000
    N2245    N        0.48434    0.53622    0.91766    1.000
    N2246    N        0.41587    0.51973    0.93766    1.000
    Si2247   Si       0.37309    0.52311    0.93975    1.000
    Si2248   Si       0.29983    0.56439    0.08384    1.000
    N2249    N        0.26840    0.58658    0.10884    1.000
    N2250    N        0.35166    0.54419    0.02152    1.000
    N2251    N        0.32565    0.59492    0.06579    1.000
    N2252    N        0.32570    0.55084    0.11431    1.000
    Si2253   Si       0.26043    0.54570    0.99648    1.000
    Si2254   Si       0.46989    0.57917    0.00655    1.000
    N2255    N        0.39857    0.55970    0.08526    1.000
    N2256    N        0.43405    0.57662    0.03151    1.000
    Si2257   Si       0.42125    0.53996    0.05276    1.000
    Si2258   Si       0.36880    0.59331    0.07717    1.000
    Si2259   Si       0.34926    0.57363    0.14305    1.000
    Si2260   Si       0.24498    0.55807    0.12932    1.000
    N2261    N        0.23796    0.56614    0.17173    1.000
    N2262    N        0.31311    0.54144    0.23059    1.000
    N2263    N        0.44977    0.54549    0.13266    1.000
    N2264    N        0.38342    0.54874    0.15210    1.000
    N2265    N        0.37702    0.58125    0.23958    1.000
    Si2266   Si       0.47507    0.58075    0.14504    1.000
    N2267    N        0.45637    0.57019    0.24304    1.000
    Si2268   Si       0.47722    0.54094    0.21878    1.000
    Si2269   Si       0.41440    0.56816    0.12638    1.000
    N2270    N        0.32684    0.59507    0.17286    1.000
    N2271    N        0.27035    0.56345    0.32726    1.000
    N2272    N        0.31619    0.57745    0.28092    1.000
    Si2273   Si       0.34719    0.55831    0.25846    1.000
    Si2274   Si       0.29720    0.59549    0.31607    1.000
    N2275    N        0.48903    0.58467    0.43936    1.000
    Si2276   Si       0.28516    0.56717    0.25057    1.000
    Si2277   Si       0.44850    0.58500    0.28448    1.000
    Si2278   Si       0.42796    0.56534    0.34943    1.000
    N2279    N        0.42632    0.55309    0.30481    1.000
    N2280    N        0.38871    0.55321    0.36451    1.000
    N2281    N        0.46241    0.54557    0.36610    1.000
    Si2282   Si       0.35435    0.58139    0.37366    1.000
    N2283    N        0.32271    0.56276    0.39816    1.000
    N2284    N        0.32495    0.57438    0.46121    1.000
    Si2285   Si       0.29748    0.58396    0.42890    1.000
    N2286    N        0.26028    0.56586    0.44281    1.000
    Si2287   Si       0.40945    0.58231    0.46609    1.000
    N2288    N        0.44238    0.56534    0.48778    1.000
    Si2289   Si       0.47204    0.55099    0.45984    1.000
    N2290    N        0.39080    0.54202    0.44976    1.000
    N2291    N        0.37951    0.59748    0.49545    1.000
    Si2292   Si       0.31169    0.57066    0.56004    1.000
    Si2293   Si       0.25210    0.56997    0.53095    1.000
    N2294    N        0.31172    0.55777    0.59899    1.000
    N2295    N        0.35175    0.57793    0.55031    1.000
    N2296    N        0.28906    0.54734    0.52963    1.000
    Si2297   Si       0.37458    0.55689    0.52003    1.000
    Si2298   Si       0.43970    0.55451    0.52885    1.000
    N2299    N        0.38334    0.58439    0.61328    1.000
    N2300    N        0.42952    0.58457    0.55764    1.000
    Si2301   Si       0.42067    0.57169    0.59939    1.000
    N2302    N        0.45820    0.59138    0.61367    1.000
    Si2303   Si       0.48127    0.57637    0.57931    1.000
    N2304    N        0.47399    0.53622    0.55244    1.000
    N2305    N        0.30198    0.54431    0.66560    1.000
    N2306    N        0.24496    0.57895    0.68316    1.000
    N2307    N        0.32469    0.59070    0.73397    1.000
    Si2308   Si       0.27929    0.58170    0.65371    1.000
    Si2309   Si       0.32409    0.57043    0.69508    1.000
    N2310    N        0.36445    0.56912    0.67847    1.000
    N2311    N        0.43445    0.57501    0.68022    1.000
    N2312    N        0.47080    0.54056    0.73150    1.000
    N2313    N        0.28006    0.55930    0.78675    1.000
    Si2314   Si       0.25658    0.57467    0.81837    1.000
    N2315    N        0.34521    0.58517    0.80388    1.000
    Si2316   Si       0.31835    0.56701    0.77087    1.000
    N2317    N        0.25792    0.54397    0.84938    1.000
    N2318    N        0.32022    0.56595    0.86910    1.000
    Si2319   Si       0.42438    0.58867    0.88615    1.000
    Si2320   Si       0.37043    0.54966    0.79915    1.000
    N2321    N        0.40651    0.55589    0.77843    1.000
    Si2322   Si       0.48280    0.57186    0.76060    1.000
    N2323    N        0.46978    0.54784    0.79553    1.000
    N2324    N        0.45142    0.56398    0.86479    1.000
    Si2325   Si       0.44713    0.55051    0.93702    1.000
    Si2326   Si       0.35777    0.54531    0.87464    1.000
    Si2327   Si       0.27910    0.55504    0.88410    1.000
    N2328    N        0.35218    0.56230    0.95511    1.000
    N2329    N        0.25990    0.58681    0.90761    1.000
    N2330    N        0.29277    0.57334    0.98965    1.000
    Si2331   Si       0.33597    0.57054    0.99343    1.000
    Si2332   Si       0.37118    0.59296    0.92947    1.000
    N2333    N        0.46678    0.54913    0.97523    1.000
    N2334    N        0.38658    0.57122    0.89423    1.000
    N2335    N        0.44796    0.58919    0.92324    1.000
    N2336    N        0.28230    0.63488    0.02157    1.000
    Si2337   Si       0.32140    0.62878    0.03693    1.000
    N2338    N        0.34502    0.61297    0.00518    1.000
    Si2339   Si       0.25177    0.65063    0.04720    1.000
    N2340    N        0.26295    0.65268    0.09023    1.000
    Si2341   Si       0.25282    0.62517    0.12416    1.000
    Si2342   Si       0.42420    0.62074    0.03659    1.000
    N2343    N        0.38724    0.62811    0.06003    1.000
    N2344    N        0.45749    0.63158    0.05931    1.000
    N2345    N        0.41269    0.65078    0.00518    1.000
    N2346    N        0.36895    0.60394    0.11921    1.000
    Si2347   Si       0.31133    0.63629    0.17035    1.000
    N2348    N        0.26861    0.62860    0.16409    1.000
    Si2349   Si       0.24642    0.60337    0.19326    1.000
    N2350    N        0.26502    0.60217    0.23265    1.000
    N2351    N        0.43071    0.62422    0.20769    1.000
    N2352    N        0.43709    0.60363    0.14202    1.000
    N2353    N        0.38532    0.64956    0.16806    1.000
    Si2354   Si       0.36460    0.64703    0.13052    1.000
    Si2355   Si       0.42588    0.63756    0.16497    1.000
    Si2356   Si       0.46896    0.60406    0.21277    1.000
    N2357    N        0.49107    0.63776    0.17898    1.000
    Si2358   Si       0.40430    0.61649    0.24115    1.000
    N2359    N        0.27442    0.62905    0.29916    1.000
    N2360    N        0.25357    0.61820    0.35918    1.000
    Si2361   Si       0.25735    0.63806    0.25761    1.000
    Si2362   Si       0.35349    0.63824    0.35123    1.000
    Si2363   Si       0.25545    0.65333    0.32958    1.000
    N2364    N        0.33042    0.60182    0.34247    1.000
    N2365    N        0.42401    0.62020    0.27902    1.000
    Si2366   Si       0.41771    0.63648    0.31844    1.000
    N2367    N        0.44112    0.60713    0.34299    1.000
    Si2368   Si       0.48369    0.61700    0.34757    1.000
    N2369    N        0.37610    0.64976    0.31627    1.000
    N2370    N        0.48538    0.60550    0.30157    1.000
    N2371    N        0.42293    0.61217    0.43771    1.000
    Si2372   Si       0.25620    0.64121    0.39892    1.000
    N2373    N        0.28897    0.62452    0.42005    1.000
    Si2374   Si       0.34159    0.61002    0.47499    1.000
    N2375    N        0.35802    0.63064    0.43938    1.000
    N2376    N        0.31183    0.63730    0.49086    1.000
    Si2377   Si       0.39395    0.63512    0.41690    1.000
    Si2378   Si       0.46622    0.62280    0.43340    1.000
    N2379    N        0.47704    0.65301    0.46356    1.000
    N2380    N        0.47192    0.64226    0.39367    1.000
    N2381    N        0.38042    0.61842    0.37895    1.000
    Si2382   Si       0.32307    0.65184    0.41938    1.000
    Si2383   Si       0.27522    0.63372    0.51838    1.000
    N2384    N        0.33341    0.62320    0.60425    1.000
    Si2385   Si       0.29160    0.62405    0.59318    1.000
    N2386    N        0.28794    0.60758    0.55357    1.000
    N2387    N        0.24995    0.60388    0.50193    1.000
    N2388    N        0.26486    0.60540    0.62088    1.000
    Si2389   Si       0.36565    0.60603    0.57939    1.000
    N2390    N        0.39065    0.63806    0.56199    1.000
    Si2391   Si       0.44962    0.62488    0.55142    1.000
    Si2392   Si       0.38914    0.63736    0.51646    1.000
    N2393    N        0.43269    0.63876    0.51241    1.000
    N2394    N        0.31538    0.60334    0.66693    1.000
    N2395    N        0.27174    0.64364    0.70228    1.000
    Si2396   Si       0.31245    0.64322    0.68527    1.000
    Si2397   Si       0.35005    0.62382    0.74080    1.000
    Si2398   Si       0.35306    0.59986    0.64326    1.000
    N2399    N        0.37921    0.62853    0.66353    1.000
    N2400    N        0.38989    0.60836    0.73065    1.000
    N2401    N        0.44452    0.63716    0.67013    1.000
    Si2402   Si       0.46286    0.59809    0.65615    1.000
    Si2403   Si       0.47290    0.64436    0.74354    1.000
    Si2404   Si       0.39839    0.59590    0.68984    1.000
    N2405    N        0.28155    0.61070    0.83116    1.000
    N2406    N        0.35218    0.63024    0.84635    1.000
    N2407    N        0.34229    0.64615    0.77732    1.000
    Si2408   Si       0.25806    0.64595    0.84223    1.000
    Si2409   Si       0.36459    0.62517    0.80611    1.000
    N2410    N        0.40592    0.62348    0.79548    1.000
    N2411    N        0.45728    0.60636    0.75161    1.000
    N2412    N        0.46140    0.64935    0.82100    1.000
    Si2413   Si       0.44996    0.65286    0.86301    1.000
    Si2414   Si       0.41694    0.59563    0.76424    1.000
    Si2415   Si       0.27710    0.61340    0.98482    1.000
    Si2416   Si       0.26435    0.62900    0.91186    1.000
    N2417    N        0.28885    0.63334    0.94814    1.000
    N2418    N        0.35081    0.63047    0.91755    1.000
    Si2419   Si       0.44012    0.61870    0.95352    1.000
    N2420    N        0.48425    0.64623    0.88794    1.000
    N2421    N        0.39825    0.61051    0.95888    1.000
    N2422    N        0.46585    0.61755    0.98741    1.000
    Si2423   Si       0.37668    0.63426    0.98688    1.000
    Si2424   Si       0.37189    0.64499    0.88183    1.000
    N2425    N        0.41357    0.63074    0.87646    1.000
    Si2426   Si       0.32753    0.65511    0.94416    1.000
    Si2427   Si       0.32238    0.59926    0.84226    1.000
    Si2428   Si       0.30312    0.67053    0.09700    1.000
    N2429    N        0.24844    0.69636    0.04250    1.000
    N2430    N        0.33199    0.66219    0.06311    1.000
    Si2431   Si       0.23829    0.71207    0.00349    1.000
    Si2432   Si       0.37466    0.67177    0.06482    1.000
    N2433    N        0.38531    0.67920    0.10721    1.000
    N2434    N        0.37977    0.70942    0.04015    1.000
    N2435    N        0.47123    0.68572    0.00332    1.000
    Si2436   Si       0.30832    0.68895    0.23277    1.000
    N2437    N        0.32405    0.66157    0.20246    1.000
    N2438    N        0.32339    0.65681    0.13362    1.000
    Si2439   Si       0.41627    0.70252    0.12876    1.000
    Si2440   Si       0.48600    0.69913    0.24185    1.000
    N2441    N        0.37371    0.71136    0.21300    1.000
    N2442    N        0.44320    0.67235    0.14498    1.000
    Si2443   Si       0.36766    0.66774    0.20550    1.000
    N2444    N        0.44621    0.70243    0.22823    1.000
    Si2445   Si       0.48659    0.66467    0.14607    1.000
    N2446    N        0.29540    0.71539    0.09763    1.000
    N2447    N        0.26942    0.67663    0.24535    1.000
    N2448    N        0.37809    0.64992    0.24199    1.000
    N2449    N        0.28257    0.68842    0.32811    1.000
    N2450    N        0.33013    0.68948    0.27062    1.000
    Si2451   Si       0.30253    0.71088    0.29680    1.000
    Si2452   Si       0.29986    0.69465    0.36804    1.000
    Si2453   Si       0.24812    0.71437    0.25074    1.000
    Si2454   Si       0.45044    0.67368    0.49096    1.000
    Si2455   Si       0.36925    0.67287    0.27975    1.000
    Si2456   Si       0.48004    0.69179    0.32539    1.000
    N2457    N        0.43842    0.67369    0.33382    1.000
    N2458    N        0.39917    0.70518    0.28233    1.000
    Si2459   Si       0.41479    0.71058    0.32367    1.000
    N2460    N        0.42330    0.70628    0.48307    1.000
    N2461    N        0.32144    0.68773    0.44370    1.000
    N2462    N        0.26686    0.68441    0.39528    1.000
    Si2463   Si       0.32728    0.67818    0.48534    1.000
    N2464    N        0.33050    0.66340    0.37756    1.000
    Si2465   Si       0.44310    0.67214    0.37969    1.000
    N2466    N        0.40972    0.67549    0.40571    1.000
    N2467    N        0.47613    0.70170    0.37344    1.000
    Si2468   Si       0.25412    0.68506    0.57540    1.000
    N2469    N        0.35518    0.68988    0.59082    1.000
    N2470    N        0.29046    0.66781    0.59190    1.000
    Si2471   Si       0.32849    0.66643    0.61262    1.000
    N2472    N        0.30171    0.70773    0.50458    1.000
    N2473    N        0.25151    0.66501    0.53758    1.000
    N2474    N        0.36495    0.67269    0.50482    1.000
    Si2475   Si       0.39604    0.67768    0.58110    1.000
    Si2476   Si       0.45951    0.69110    0.60498    1.000
    N2477    N        0.41819    0.67611    0.61868    1.000
    N2478    N        0.47939    0.69628    0.51421    1.000
    Si2479   Si       0.39021    0.71025    0.51092    1.000
    N2480    N        0.40550    0.70921    0.55251    1.000
    N2481    N        0.46176    0.66201    0.57107    1.000
    N2482    N        0.32149    0.67357    0.65391    1.000
    Si2483   Si       0.26833    0.68600    0.71607    1.000
    Si2484   Si       0.35741    0.69655    0.70368    1.000
    N2485    N        0.33697    0.66037    0.71740    1.000
    N2486    N        0.27221    0.71314    0.68267    1.000
    N2487    N        0.37230    0.70223    0.74589    1.000
    N2488    N        0.45714    0.70371    0.69248    1.000
    Si2489   Si       0.40827    0.66001    0.65876    1.000
    N2490    N        0.39426    0.68814    0.68729    1.000
    Si2491   Si       0.47512    0.66866    0.67844    1.000
    Si2492   Si       0.42051    0.69905    0.72046    1.000
    N2493    N        0.48987    0.67790    0.63844    1.000
    Si2494   Si       0.30974    0.71577    0.66209    1.000
    N2495    N        0.25004    0.67108    0.80797    1.000
    Si2496   Si       0.33335    0.68521    0.76409    1.000
    N2497    N        0.29059    0.69566    0.75340    1.000
    Si2498   Si       0.26309    0.70821    0.78412    1.000
    N2499    N        0.34244    0.71213    0.79985    1.000
    N2500    N        0.40315    0.68872    0.81210    1.000
    Si2501   Si       0.40348    0.70593    0.85204    1.000
    N2502    N        0.44226    0.67613    0.75398    1.000
    Si2503   Si       0.42968    0.66136    0.79457    1.000
    N2504    N        0.43934    0.69298    0.87331    1.000
    N2505    N        0.31710    0.69521    0.92442    1.000
    Si2506   Si       0.28332    0.69793    0.89337    1.000
    N2507    N        0.35426    0.66941    0.97600    1.000
    N2508    N        0.27039    0.70216    0.97308    1.000
    Si2509   Si       0.23842    0.68397    0.94506    1.000
    N2510    N        0.27817    0.65737    0.87995    1.000
    N2511    N        0.44600    0.66264    0.94371    1.000
    Si2512   Si       0.48484    0.66784    0.92623    1.000
    Si2513   Si       0.36925    0.70494    0.99616    1.000
    Si2514   Si       0.43328    0.68024    0.98277    1.000
    N2515    N        0.37342    0.68806    0.88068    1.000
    N2516    N        0.49173    0.71171    0.92237    1.000
    Si2517   Si       0.34239    0.71497    0.89490    1.000
    Si2518   Si       0.26034    0.72552    0.07326    1.000
    N2519    N        0.27021    0.76375    0.05200    1.000
    Si2520   Si       0.40705    0.71813    0.24094    1.000
    Si2521   Si       0.41065    0.73689    0.05800    1.000
    N2522    N        0.44633    0.74094    0.03355    1.000
    N2523    N        0.42509    0.73340    0.09794    1.000
    Si2524   Si       0.48352    0.71618    0.03194    1.000
    Si2525   Si       0.30668    0.74400    0.12793    1.000
    Si2526   Si       0.34503    0.73942    0.19757    1.000
    Si2527   Si       0.27022    0.75119    0.19185    1.000
    N2528    N        0.33950    0.75035    0.15680    1.000
    N2529    N        0.27119    0.75589    0.14939    1.000
    N2530    N        0.30315    0.72742    0.20933    1.000
    N2531    N        0.34673    0.77041    0.22670    1.000
    Si2532   Si       0.30557    0.76737    0.24065    1.000
    N2533    N        0.41533    0.76217    0.23212    1.000
    N2534    N        0.47918    0.76812    0.12806    1.000
    N2535    N        0.48218    0.75122    0.19916    1.000
    Si2536   Si       0.43994    0.75792    0.19808    1.000
    Si2537   Si       0.43526    0.76283    0.13138    1.000
    N2538    N        0.42677    0.73568    0.16233    1.000
    N2539    N        0.28009    0.74048    0.26905    1.000
    N2540    N        0.31921    0.74404    0.31812    1.000
    Si2541   Si       0.32469    0.76525    0.35726    1.000
    Si2542   Si       0.28551    0.77243    0.30294    1.000
    N2543    N        0.45526    0.73100    0.31154    1.000
    N2544    N        0.40421    0.73193    0.36205    1.000
    Si2545   Si       0.45282    0.77071    0.32864    1.000
    Si2546   Si       0.24180    0.71445    0.41208    1.000
    Si2547   Si       0.27605    0.73380    0.48007    1.000
    N2548    N        0.24779    0.75205    0.38595    1.000
    N2549    N        0.31461    0.73095    0.38401    1.000
    N2550    N        0.30153    0.75414    0.44951    1.000
    Si2551   Si       0.32553    0.72845    0.42531    1.000
    N2552    N        0.24059    0.72163    0.45562    1.000
    Si2553   Si       0.47075    0.74100    0.39349    1.000
    Si2554   Si       0.37300    0.76455    0.46027    1.000
    N2555    N        0.36935    0.73431    0.43003    1.000
    N2556    N        0.47755    0.74991    0.47563    1.000
    N2557    N        0.43900    0.73395    0.42133    1.000
    Si2558   Si       0.43698    0.74079    0.46350    1.000
    Si2559   Si       0.40222    0.71750    0.40477    1.000
    N2560    N        0.32700    0.75459    0.56231    1.000
    Si2561   Si       0.29694    0.73503    0.53803    1.000
    Si2562   Si       0.34656    0.73051    0.59529    1.000
    Si2563   Si       0.27847    0.75406    0.60601    1.000
    N2564    N        0.26748    0.72800    0.56954    1.000
    N2565    N        0.27321    0.76090    0.51384    1.000
    N2566    N        0.38402    0.75127    0.60069    1.000
    Si2567   Si       0.41752    0.74578    0.57278    1.000
    N2568    N        0.44986    0.73428    0.59906    1.000
    N2569    N        0.36785    0.74772    0.50000    1.000
    N2570    N        0.31447    0.73420    0.62331    1.000
    N2571    N        0.24351    0.75090    0.63167    1.000
    N2572    N        0.34170    0.73286    0.68692    1.000
    N2573    N        0.24374    0.76254    0.70874    1.000
    Si2574   Si       0.46344    0.74620    0.69854    1.000
    N2575    N        0.43736    0.74062    0.73650    1.000
    N2576    N        0.43829    0.76362    0.66817    1.000
    Si2577   Si       0.44804    0.76940    0.62728    1.000
    Si2578   Si       0.35098    0.77571    0.69242    1.000
    N2579    N        0.28198    0.74053    0.80714    1.000
    Si2580   Si       0.32051    0.73626    0.82577    1.000
    Si2581   Si       0.25677    0.77173    0.78879    1.000
    N2582    N        0.31225    0.71924    0.86550    1.000
    N2583    N        0.39394    0.74752    0.85436    1.000
    N2584    N        0.39073    0.75871    0.78576    1.000
    N2585    N        0.48082    0.74407    0.86477    1.000
    N2586    N        0.46227    0.72360    0.80132    1.000
    Si2587   Si       0.38354    0.71688    0.78407    1.000
    Si2588   Si       0.46491    0.71515    0.76032    1.000
    Si2589   Si       0.34910    0.76425    0.95313    1.000
    N2590    N        0.34006    0.73375    0.98165    1.000
    Si2591   Si       0.30500    0.72221    0.95827    1.000
    N2592    N        0.30215    0.76424    0.94258    1.000
    N2593    N        0.35832    0.75013    0.91182    1.000
    Si2594   Si       0.45827    0.72490    0.89639    1.000
    N2595    N        0.24621    0.71284    0.91163    1.000
    N2596    N        0.42676    0.74555    0.91552    1.000
    Si2597   Si       0.39515    0.76315    0.89451    1.000
    Si2598   Si       0.41976    0.75435    0.95897    1.000
    N2599    N        0.40794    0.71602    0.97669    1.000
    N2600    N        0.33741    0.77740    0.83129    1.000
    Si2601   Si       0.37938    0.77582    0.82371    1.000
    N2602    N        0.45730    0.77454    0.96866    1.000
    N2603    N        0.32679    0.79455    0.03722    1.000
    Si2604   Si       0.29973    0.79108    0.07029    1.000
    N2605    N        0.32172    0.78205    0.10674    1.000
    Si2606   Si       0.24540    0.78346    0.02300    1.000
    Si2607   Si       0.29810    0.82536    0.02254    1.000
    N2608    N        0.28125    0.83028    0.06441    1.000
    Si2609   Si       0.36691    0.80709    0.04277    1.000
    N2610    N        0.26414    0.81364    0.99702    1.000
    N2611    N        0.45033    0.81198    0.02700    1.000
    Si2612   Si       0.40254    0.80849    0.09111    1.000
    N2613    N        0.39327    0.77881    0.05860    1.000
    Si2614   Si       0.47056    0.82594    0.06296    1.000
    N2615    N        0.44067    0.82860    0.09250    1.000
    Si2616   Si       0.46683    0.77325    0.01164    1.000
    N2617    N        0.28209    0.78805    0.21024    1.000
    Si2618   Si       0.35221    0.78770    0.13762    1.000
    Si2619   Si       0.27043    0.82916    0.20427    1.000
    N2620    N        0.34832    0.82918    0.15137    1.000
    N2621    N        0.44160    0.79973    0.17968    1.000
    Si2622   Si       0.47491    0.82304    0.19542    1.000
    N2623    N        0.38316    0.82193    0.20435    1.000
    Si2624   Si       0.38426    0.79273    0.23610    1.000
    Si2625   Si       0.40342    0.81836    0.16679    1.000
    N2626    N        0.39632    0.78792    0.13112    1.000
    N2627    N        0.30794    0.79768    0.27501    1.000
    N2628    N        0.29347    0.79371    0.34568    1.000
    Si2629   Si       0.33769    0.82888    0.27807    1.000
    N2630    N        0.24202    0.77683    0.30235    1.000
    N2631    N        0.37714    0.80975    0.27575    1.000
    N2632    N        0.41389    0.78774    0.32606    1.000
    Si2633   Si       0.40812    0.82093    0.29998    1.000
    Si2634   Si       0.48107    0.81864    0.27539    1.000
    N2635    N        0.48150    0.78466    0.30200    1.000
    Si2636   Si       0.39910    0.77504    0.36577    1.000
    N2637    N        0.46038    0.77699    0.37073    1.000
    N2638    N        0.35703    0.78373    0.37561    1.000
    Si2639   Si       0.26322    0.79074    0.37818    1.000
    N2640    N        0.28662    0.80974    0.40863    1.000
    Si2641   Si       0.28139    0.79449    0.44909    1.000
    N2642    N        0.29990    0.81565    0.48247    1.000
    Si2643   Si       0.34194    0.82855    0.48299    1.000
    N2644    N        0.35862    0.80357    0.44923    1.000
    N2645    N        0.23937    0.80594    0.45695    1.000
    Si2646   Si       0.45245    0.81170    0.39365    1.000
    N2647    N        0.40917    0.80754    0.39760    1.000
    Si2648   Si       0.36500    0.81319    0.40672    1.000
    N2649    N        0.46819    0.79935    0.43234    1.000
    N2650    N        0.41437    0.77659    0.47244    1.000
    Si2651   Si       0.44019    0.80947    0.46426    1.000
    Si2652   Si       0.32063    0.79603    0.57548    1.000
    N2653    N        0.29008    0.79492    0.60705    1.000
    Si2654   Si       0.27695    0.80466    0.51718    1.000
    N2655    N        0.30222    0.82348    0.54834    1.000
    N2656    N        0.35863    0.81172    0.58515    1.000
    N2657    N        0.37029    0.81984    0.51484    1.000
    Si2658   Si       0.46339    0.79382    0.53922    1.000
    N2659    N        0.46254    0.81368    0.50334    1.000
    Si2660   Si       0.39355    0.78230    0.51287    1.000
    Si2661   Si       0.38237    0.79274    0.61436    1.000
    N2662    N        0.42687    0.80334    0.61406    1.000
    N2663    N        0.47439    0.82706    0.56775    1.000
    N2664    N        0.42375    0.77648    0.54329    1.000
    N2665    N        0.31406    0.79895    0.70338    1.000
    Si2666   Si       0.27173    0.79544    0.71414    1.000
    N2667    N        0.38759    0.78171    0.71672    1.000
    N2668    N        0.37263    0.79178    0.65719    1.000
    Si2669   Si       0.40841    0.79252    0.68109    1.000
    N2670    N        0.24968    0.83229    0.71145    1.000
    N2671    N        0.27906    0.79518    0.76118    1.000
    Si2672   Si       0.31606    0.81056    0.84774    1.000
    Si2673   Si       0.24318    0.79311    0.85809    1.000
    Si2674   Si       0.48861    0.79351    0.94529    1.000
    N2675    N        0.23897    0.79899    0.81651    1.000
    Si2676   Si       0.47428    0.82157    0.75822    1.000
    N2677    N        0.43694    0.80796    0.76767    1.000
    N2678    N        0.39719    0.81288    0.83324    1.000
    N2679    N        0.38760    0.78151    0.96420    1.000
    Si2680   Si       0.41208    0.77268    0.75186    1.000
    N2681    N        0.28398    0.79130    0.87488    1.000
    Si2682   Si       0.27927    0.79151    0.91799    1.000
    Si2683   Si       0.39364    0.82084    0.94541    1.000
    N2684    N        0.39871    0.80636    0.90312    1.000
    N2685    N        0.37568    0.83491    0.77356    1.000
    Si2686   Si       0.41088    0.83095    0.79601    1.000
    Si2687   Si       0.38414    0.83204    0.87057    1.000
    Si2688   Si       0.27560    0.86568    0.08774    1.000
    N2689    N        0.31375    0.87659    0.10955    1.000
    N2690    N        0.32005    0.86126    0.00992    1.000
    Si2691   Si       0.35068    0.85605    0.11520    1.000
    N2692    N        0.24516    0.86729    0.11889    1.000
    N2693    N        0.42770    0.88034    0.02667    1.000
    Si2694   Si       0.42273    0.84118    0.00958    1.000
    Si2695   Si       0.44554    0.86463    0.11680    1.000
    N2696    N        0.37970    0.83364    0.01176    1.000
    N2697    N        0.48611    0.86683    0.05746    1.000
    N2698    N        0.36718    0.83487    0.08066    1.000
    Si2699   Si       0.30595    0.88478    0.23028    1.000
    Si2700   Si       0.34758    0.84940    0.19622    1.000
    N2701    N        0.29995    0.85923    0.19481    1.000
    N2702    N        0.24570    0.84264    0.23941    1.000
    N2703    N        0.36349    0.88820    0.18330    1.000
    N2704    N        0.33675    0.85458    0.24240    1.000
    N2705    N        0.47946    0.88123    0.13485    1.000
    N2706    N        0.46652    0.86269    0.20765    1.000
    N2707    N        0.41586    0.85513    0.14761    1.000
    N2708    N        0.33306    0.85258    0.31528    1.000
    N2709    N        0.26323    0.84272    0.30793    1.000
    Si2710   Si       0.29612    0.83889    0.33523    1.000
    Si2711   Si       0.25014    0.86786    0.27512    1.000
    N2712    N        0.28483    0.86508    0.36763    1.000
    N2713    N        0.44185    0.85270    0.45913    1.000
    Si2714   Si       0.36234    0.88218    0.32158    1.000
    N2715    N        0.44235    0.83564    0.27573    1.000
    Si2716   Si       0.43453    0.87499    0.29419    1.000
    N2717    N        0.39961    0.86076    0.31520    1.000
    N2718    N        0.46992    0.87685    0.31791    1.000
    Si2719   Si       0.47657    0.88842    0.35837    1.000
    N2720    N        0.34213    0.84870    0.40148    1.000
    N2721    N        0.27967    0.86932    0.44167    1.000
    N2722    N        0.33461    0.87072    0.48315    1.000
    Si2723   Si       0.29885    0.85124    0.40688    1.000
    N2724    N        0.47393    0.84774    0.38173    1.000
    Si2725   Si       0.24087    0.85090    0.45187    1.000
    Si2726   Si       0.41640    0.88662    0.46157    1.000
    Si2727   Si       0.47307    0.85397    0.49164    1.000
    N2728    N        0.29943    0.86450    0.60666    1.000
    N2729    N        0.34688    0.87433    0.54921    1.000
    Si2730   Si       0.30614    0.86539    0.56186    1.000
    Si2731   Si       0.26937    0.83342    0.61401    1.000
    N2732    N        0.23961    0.84318    0.58457    1.000
    N2733    N        0.41131    0.85735    0.56480    1.000
    Si2734   Si       0.37315    0.83911    0.55341    1.000
    Si2735   Si       0.44143    0.84104    0.59302    1.000
    N2736    N        0.45915    0.88438    0.51923    1.000
    N2737    N        0.46215    0.87154    0.61575    1.000
    N2738    N        0.48706    0.84264    0.72252    1.000
    Si2739   Si       0.42036    0.89084    0.53799    1.000
    Si2740   Si       0.38893    0.85897    0.67240    1.000
    N2741    N        0.31409    0.85967    0.74729    1.000
    Si2742   Si       0.32154    0.87925    0.64129    1.000
    Si2743   Si       0.32328    0.84219    0.70668    1.000
    N2744    N        0.29949    0.86588    0.67659    1.000
    Si2745   Si       0.25644    0.86542    0.68168    1.000
    N2746    N        0.24469    0.83775    0.64967    1.000
    N2747    N        0.36389    0.85487    0.70695    1.000
    Si2748   Si       0.46546    0.85289    0.68482    1.000
    N2749    N        0.35942    0.85713    0.64190    1.000
    N2750    N        0.42655    0.83429    0.68207    1.000
    N2751    N        0.24790    0.85570    0.77600    1.000
    Si2752   Si       0.29746    0.88183    0.82237    1.000
    N2753    N        0.30459    0.83894    0.81606    1.000
    N2754    N        0.26199    0.87948    0.84711    1.000
    Si2755   Si       0.35813    0.86596    0.75062    1.000
    Si2756   Si       0.28744    0.83456    0.77658    1.000
    N2757    N        0.45577    0.88110    0.91507    1.000
    N2758    N        0.42866    0.87229    0.79523    1.000
    N2759    N        0.46133    0.85958    0.85401    1.000
    Si2760   Si       0.46996    0.87185    0.81012    1.000
    N2761    N        0.39427    0.87260    0.87647    1.000
    Si2762   Si       0.43625    0.88470    0.87706    1.000
    Si2763   Si       0.35346    0.88739    0.87545    1.000
    Si2764   Si       0.26167    0.84391    0.96416    1.000
    N2765    N        0.35496    0.83973    0.94908    1.000
    Si2766   Si       0.32579    0.84654    0.91778    1.000
    N2767    N        0.26331    0.88324    0.98574    1.000
    Si2768   Si       0.35577    0.86062    0.98767    1.000
    N2769    N        0.34015    0.83433    0.87725    1.000
    N2770    N        0.28794    0.83165    0.93166    1.000
    Si2771   Si       0.45988    0.86516    0.95464    1.000
    N2772    N        0.42453    0.84371    0.96632    1.000
    N2773    N        0.32715    0.88987    0.90909    1.000
    N2774    N        0.31468    0.93258    0.01561    1.000
    Si2775   Si       0.27643    0.93990    0.07655    1.000
    N2776    N        0.31966    0.94050    0.08402    1.000
    N2777    N        0.25999    0.93777    0.11798    1.000
    Si2778   Si       0.33027    0.91413    0.11723    1.000
    Si2779   Si       0.34269    0.94420    0.04714    1.000
    N2780    N        0.27367    0.90037    0.05640    1.000
    Si2781   Si       0.29152    0.89469    0.01816    1.000
    N2782    N        0.37059    0.89668    0.11895    1.000
    N2783    N        0.47208    0.93290    0.03882    1.000
    N2784    N        0.37857    0.92175    0.05257    1.000
    Si2785   Si       0.39543    0.92210    0.09276    1.000
    Si2786   Si       0.39849    0.90924    0.01804    1.000
    N2787    N        0.43151    0.89896    0.09127    1.000
    Si2788   Si       0.45689    0.89565    0.05639    1.000
    Si2789   Si       0.45826    0.93781    0.99880    1.000
    Si2790   Si       0.39620    0.89252    0.15521    1.000
    N2791    N        0.31601    0.93257    0.15261    1.000
    Si2792   Si       0.34451    0.92685    0.18723    1.000
    N2793    N        0.32817    0.92227    0.22528    1.000
    N2794    N        0.41835    0.92726    0.15518    1.000
    N2795    N        0.26265    0.92617    0.32615    1.000
    Si2796   Si       0.34250    0.93766    0.26401    1.000
    Si2797   Si       0.27225    0.93679    0.28536    1.000
    N2798    N        0.28032    0.89839    0.26274    1.000
    N2799    N        0.36280    0.90322    0.36016    1.000
    N2800    N        0.36720    0.91343    0.29118    1.000
    Si2801   Si       0.40184    0.94379    0.28801    1.000
    N2802    N        0.43326    0.91602    0.27551    1.000
    Si2803   Si       0.47447    0.93722    0.27646    1.000
    Si2804   Si       0.36878    0.94563    0.36133    1.000
    N2805    N        0.29705    0.93047    0.48352    1.000
    N2806    N        0.32741    0.90994    0.42178    1.000
    Si2807   Si       0.30879    0.89554    0.45751    1.000
    N2808    N        0.24381    0.92349    0.38600    1.000
    Si2809   Si       0.47606    0.94680    0.46301    1.000
    Si2810   Si       0.42335    0.91971    0.41006    1.000
    N2811    N        0.44130    0.92340    0.45144    1.000
    N2812    N        0.45780    0.91564    0.38427    1.000
    N2813    N        0.39483    0.89003    0.42254    1.000
    Si2814   Si       0.25549    0.89258    0.35507    1.000
    Si2815   Si       0.35858    0.88881    0.40040    1.000
    Si2816   Si       0.27221    0.92896    0.52268    1.000
    N2817    N        0.35626    0.93795    0.51625    1.000
    Si2818   Si       0.35615    0.89569    0.51074    1.000
    N2819    N        0.41279    0.93114    0.55332    1.000
    N2820    N        0.48521    0.93786    0.55847    1.000
    N2821    N        0.43991    0.94126    0.61535    1.000
    Si2822   Si       0.23558    0.92782    0.69950    1.000
    N2823    N        0.38089    0.93775    0.70936    1.000
    N2824    N        0.25632    0.89714    0.72441    1.000
    N2825    N        0.33297    0.92188    0.65470    1.000
    N2826    N        0.31769    0.92677    0.72613    1.000
    Si2827   Si       0.30769    0.94366    0.68718    1.000
    Si2828   Si       0.35438    0.93830    0.74490    1.000
    N2829    N        0.47521    0.89571    0.67035    1.000
    Si2830   Si       0.48122    0.93549    0.69266    1.000
    Si2831   Si       0.44411    0.90420    0.63800    1.000
    Si2832   Si       0.37641    0.92624    0.66653    1.000
    N2833    N        0.40738    0.89641    0.66055    1.000
    Si2834   Si       0.44603    0.95058    0.57351    1.000
    N2835    N        0.27481    0.89080    0.54644    1.000
    N2836    N        0.39691    0.88846    0.50024    1.000
    N2837    N        0.28885    0.90845    0.79030    1.000
    Si2838   Si       0.35744    0.93821    0.83563    1.000
    N2839    N        0.33549    0.89856    0.83745    1.000
    Si2840   Si       0.26449    0.94477    0.79668    1.000
    Si2841   Si       0.29341    0.89888    0.74677    1.000
    N2842    N        0.36983    0.90366    0.76719    1.000
    Si2843   Si       0.40780    0.90884    0.78543    1.000
    N2844    N        0.39881    0.93220    0.82079    1.000
    Si2845   Si       0.47038    0.94011    0.77412    1.000
    N2846    N        0.48135    0.91363    0.80710    1.000
    N2847    N        0.43104    0.92614    0.75324    1.000
    N2848    N        0.44068    0.92805    0.87116    1.000
    Si2849   Si       0.32948    0.93296    0.90910    1.000
    N2850    N        0.26940    0.94746    0.95880    1.000
    N2851    N        0.34030    0.94460    0.95010    1.000
    N2852    N        0.36322    0.93413    0.88050    1.000
    Si2853   Si       0.24083    0.92030    0.97522    1.000
    Si2854   Si       0.45494    0.92342    0.92675    1.000
    Si2855   Si       0.40447    0.94675    0.88811    1.000
    N2856    N        0.46195    0.90844    0.96932    1.000
    N2857    N        0.37341    0.90025    0.98464    1.000
    Si2858   Si       0.38410    0.94182    0.96114    1.000
    N2859    N        0.41449    0.93732    0.92954    1.000
    N2860    N        0.41433    0.94559    0.99754    1.000
    N2861    N        0.35499    0.98628    0.04769    1.000
    N2862    N        0.24847    0.96623    0.05565    1.000
    Si2863   Si       0.37344    0.99668    0.08688    1.000
    N2864    N        0.38355    0.96140    0.10965    1.000
    N2865    N        0.47480    0.00357    0.05122    1.000
    N2866    N        0.28751    0.99875    0.12936    1.000
    Si2867   Si       0.28293    0.95869    0.14727    1.000
    N2868    N        0.25212    0.97313    0.17443    1.000
    N2869    N        0.36754    0.96422    0.18455    1.000
    Si2870   Si       0.37720    0.98841    0.22042    1.000
    N2871    N        0.41869    0.00350    0.15789    1.000
    Si2872   Si       0.39742    0.96559    0.15369    1.000
    N2873    N        0.42021    0.99857    0.22584    1.000
    Si2874   Si       0.29581    0.99973    0.28765    1.000
    N2875    N        0.31079    0.95852    0.28082    1.000
    N2876    N        0.28330    0.99885    0.32928    1.000
    N2877    N        0.24926    0.97191    0.27292    1.000
    Si2878   Si       0.31740    0.00402    0.35880    1.000
    N2879    N        0.33553    0.96967    0.37678    1.000
    Si2880   Si       0.41584    0.99698    0.32107    1.000
    N2881    N        0.38677    0.96385    0.32643    1.000
    N2882    N        0.43874    0.97536    0.29124    1.000
    N2883    N        0.37635    0.96428    0.25553    1.000
    Si2884   Si       0.45261    0.99589    0.25480    1.000
    Si2885   Si       0.41547    0.99058    0.39976    1.000
    N2886    N        0.45590    0.98280    0.41670    1.000
    N2887    N        0.35003    0.97075    0.45188    1.000
    N2888    N        0.28847    0.97461    0.42505    1.000
    N2889    N        0.26000    0.98305    0.48676    1.000
    Si2890   Si       0.33007    0.96113    0.48983    1.000
    Si2891   Si       0.32786    0.95647    0.41792    1.000
    Si2892   Si       0.26873    0.95412    0.45650    1.000
    Si2893   Si       0.47744    0.95057    0.39843    1.000
    N2894    N        0.47019    0.98469    0.48335    1.000
    N2895    N        0.39970    0.95072    0.39102    1.000
    Si2896   Si       0.27412    0.98509    0.58338    1.000
    N2897    N        0.28100    0.96408    0.54623    1.000
    N2898    N        0.32270    0.00059    0.50666    1.000
    Si2899   Si       0.28274    0.00240    0.52184    1.000
    N2900    N        0.35117    0.95270    0.58751    1.000
    N2901    N        0.44884    0.99110    0.56193    1.000
    N2902    N        0.38405    0.99642    0.54193    1.000
    Si2903   Si       0.47053    0.00205    0.52225    1.000
    Si2904   Si       0.37404    0.95449    0.55257    1.000
    N2905    N        0.44319    0.95358    0.68390    1.000
    N2906    N        0.29280    0.97511    0.62161    1.000
    Si2907   Si       0.33950    0.96340    0.63073    1.000
    Si2908   Si       0.26902    0.98649    0.73202    1.000
    Si2909   Si       0.27612    0.98627    0.65959    1.000
    N2910    N        0.32412    0.98250    0.67461    1.000
    N2911    N        0.26827    0.95867    0.69165    1.000
    N2912    N        0.38140    0.96339    0.64662    1.000
    N2913    N        0.41927    0.99617    0.73078    1.000
    Si2914   Si       0.42496    0.96860    0.64509    1.000
    Si2915   Si       0.41998    0.95225    0.72031    1.000
    Si2916   Si       0.29491    0.97950    0.85527    1.000
    N2917    N        0.28526    0.97474    0.77014    1.000
    Si2918   Si       0.32244    0.98984    0.78927    1.000
    N2919    N        0.32681    0.96676    0.82755    1.000
    N2920    N        0.25956    0.96355    0.83559    1.000
    N2921    N        0.35378    0.97762    0.76043    1.000
    N2922    N        0.44795    0.97352    0.79448    1.000
    N2923    N        0.41237    0.98310    0.86311    1.000
    N2924    N        0.47956    0.97866    0.84987    1.000
    Si2925   Si       0.43812    0.95828    0.83802    1.000
    Si2926   Si       0.48795    0.99484    0.80950    1.000
    Si2927   Si       0.30859    0.95569    0.97855    1.000
    Si2928   Si       0.26514    0.96832    0.92174    1.000
    N2929    N        0.30538    0.99793    0.99171    1.000
    N2930    N        0.29770    0.95675    0.89291    1.000
    N2931    N        0.46533    0.97936    0.98368    1.000
    N2932    N        0.48309    0.95512    0.91953    1.000
    Si2933   Si       0.42083    0.98756    0.98886    1.000
    N2934    N        0.38617    0.99050    0.96242    1.000
    Si2935   Si       0.43616    0.00886    0.77232    1.000
    N2936    N        0.52293    0.04304    0.07363    1.000
    Si2937   Si       0.56342    0.06140    0.08148    1.000
    N2938    N        0.50273    0.03818    0.00466    1.000
    Si2939   Si       0.49522    0.01220    0.08875    1.000
    Si2940   Si       0.50086    0.06437    0.04073    1.000
    N2941    N        0.57946    0.04598    0.11913    1.000
    N2942    N        0.58172    0.06500    0.04082    1.000
    Si2943   Si       0.61986    0.05618    0.01975    1.000
    Si2944   Si       0.68668    0.01967    0.01553    1.000
    Si2945   Si       0.71534    0.04259    0.08368    1.000
    N2946    N        0.64324    0.01888    0.01539    1.000
    N2947    N        0.69107    0.01632    0.05914    1.000
    N2948    N        0.70638    0.05729    0.00247    1.000
    N2949    N        0.64722    0.01496    0.11379    1.000
    Si2950   Si       0.60666    0.01290    0.12170    1.000
    Si2951   Si       0.49540    0.04366    0.23170    1.000
    Si2952   Si       0.49845    0.02730    0.15664    1.000
    N2953    N        0.56661    0.04262    0.19838    1.000
    Si2954   Si       0.56269    0.06088    0.15715    1.000
    N2955    N        0.51884    0.06327    0.14900    1.000
    Si2956   Si       0.67092    0.03790    0.14311    1.000
    N2957    N        0.71093    0.03910    0.12716    1.000
    N2958    N        0.66769    0.01236    0.17993    1.000
    Si2959   Si       0.69282    0.02975    0.21004    1.000
    N2960    N        0.73368    0.02988    0.19164    1.000
    N2961    N        0.68559    0.06989    0.22393    1.000
    N2962    N        0.58679    0.03531    0.29848    1.000
    Si2963   Si       0.54399    0.03768    0.30060    1.000
    N2964    N        0.53143    0.03368    0.25709    1.000
    Si2965   Si       0.61611    0.03222    0.36320    1.000
    N2966    N        0.63954    0.05134    0.33421    1.000
    N2967    N        0.69466    0.05287    0.29270    1.000
    N2968    N        0.69495    0.02755    0.36151    1.000
    Si2969   Si       0.71685    0.01900    0.27730    1.000
    Si2970   Si       0.68231    0.05816    0.33342    1.000
    N2971    N        0.58636    0.03830    0.44451    1.000
    Si2972   Si       0.54899    0.02337    0.46233    1.000
    N2973    N        0.52911    0.05264    0.49100    1.000
    N2974    N        0.58700    0.06082    0.37946    1.000
    N2975    N        0.51690    0.01090    0.43668    1.000
    N2976    N        0.63767    0.02313    0.40007    1.000
    N2977    N        0.66005    0.02971    0.46145    1.000
    Si2978   Si       0.62377    0.01552    0.44125    1.000
    Si2979   Si       0.68187    0.02893    0.40085    1.000
    Si2980   Si       0.53758    0.03864    0.53098    1.000
    N2981    N        0.55465    0.02979    0.60021    1.000
    N2982    N        0.57574    0.02117    0.53451    1.000
    Si2983   Si       0.60811    0.03576    0.55817    1.000
    N2984    N        0.64217    0.03089    0.52960    1.000
    N2985    N        0.71341    0.05296    0.57359    1.000
    Si2986   Si       0.70082    0.05355    0.61627    1.000
    N2987    N        0.68706    0.01086    0.62060    1.000
    N2988    N        0.61730    0.00925    0.59089    1.000
    Si2989   Si       0.64560    0.00817    0.71494    1.000
    Si2990   Si       0.51622    0.02051    0.61977    1.000
    Si2991   Si       0.55859    0.06127    0.66406    1.000
    Si2992   Si       0.58690    0.01180    0.62590    1.000
    N2993    N        0.59717    0.04612    0.65146    1.000
    N2994    N        0.53214    0.02707    0.66013    1.000
    Si2995   Si       0.63633    0.06341    0.65869    1.000
    N2996    N        0.65852    0.03255    0.68078    1.000
    N2997    N        0.52151    0.02207    0.82233    1.000
    Si2998   Si       0.54639    0.01898    0.85797    1.000
    Si2999   Si       0.50729    0.05621    0.80243    1.000
    N3000    N        0.55408    0.06127    0.86705    1.000
    N3001    N        0.72616    0.03353    0.94037    1.000
    Si3002   Si       0.69784    0.05520    0.91566    1.000
    Si3003   Si       0.61618    0.03229    0.77801    1.000
    N3004    N        0.70060    0.01364    0.80890    1.000
    Si3005   Si       0.72173    0.03013    0.84389    1.000
    Si3006   Si       0.67812    0.03965    0.78481    1.000
    N3007    N        0.64232    0.05786    0.80674    1.000
    N3008    N        0.65214    0.02316    0.75491    1.000
    N3009    N        0.62339    0.06212    0.87023    1.000
    Si3010   Si       0.50432    0.05855    0.96683    1.000
    N3011    N        0.59006    0.02435    0.91527    1.000
    N3012    N        0.54456    0.05438    0.95193    1.000
    N3013    N        0.60839    0.06113    0.97674    1.000
    Si3014   Si       0.55144    0.01504    0.93174    1.000
    Si3015   Si       0.58789    0.06473    0.89514    1.000
    Si3016   Si       0.73982    0.05769    0.97461    1.000
    Si3017   Si       0.65227    0.03263    0.88305    1.000
    N3018    N        0.69380    0.03710    0.87713    1.000
    N3019    N        0.65602    0.03861    0.92678    1.000
    Si3020   Si       0.62163    0.02745    0.95000    1.000
    Si3021   Si       0.56484    0.10418    0.03093    1.000
    N3022    N        0.55457    0.10367    0.08654    1.000
    N3023    N        0.51876    0.10368    0.03593    1.000
    Si3024   Si       0.58226    0.11947    0.11630    1.000
    Si3025   Si       0.49707    0.12566    0.00413    1.000
    Si3026   Si       0.52072    0.12541    0.07321    1.000
    N3027    N        0.62126    0.10668    0.10155    1.000
    Si3028   Si       0.69138    0.09140    0.02523    1.000
    N3029    N        0.64949    0.08614    0.03405    1.000
    N3030    N        0.71347    0.08372    0.06487    1.000
    Si3031   Si       0.63458    0.11781    0.06077    1.000
    Si3032   Si       0.49724    0.09806    0.13966    1.000
    N3033    N        0.51406    0.08122    0.22010    1.000
    N3034    N        0.57271    0.10356    0.15519    1.000
    Si3035   Si       0.50014    0.12039    0.21013    1.000
    Si3036   Si       0.55481    0.06423    0.23336    1.000
    Si3037   Si       0.66852    0.09731    0.19526    1.000
    Si3038   Si       0.71924    0.12343    0.15604    1.000
    Si3039   Si       0.65046    0.11207    0.13313    1.000
    N3040    N        0.65551    0.07647    0.15809    1.000
    N3041    N        0.69202    0.11911    0.12184    1.000
    N3042    N        0.63712    0.11676    0.21669    1.000
    N3043    N        0.69949    0.12743    0.19349    1.000
    Si3044   Si       0.56173    0.08587    0.35638    1.000
    N3045    N        0.59130    0.10082    0.32546    1.000
    Si3046   Si       0.49169    0.08145    0.34425    1.000
    N3047    N        0.57542    0.09814    0.25217    1.000
    Si3048   Si       0.61309    0.06937    0.30475    1.000
    N3049    N        0.53053    0.06699    0.33056    1.000
    Si3050   Si       0.61721    0.11601    0.25440    1.000
    N3051    N        0.64036    0.08568    0.27543    1.000
    N3052    N        0.70304    0.09190    0.34822    1.000
    Si3053   Si       0.68474    0.08546    0.26483    1.000
    N3054    N        0.70734    0.12331    0.26574    1.000
    N3055    N        0.57435    0.10864    0.44008    1.000
    Si3056   Si       0.51027    0.09129    0.48262    1.000
    N3057    N        0.50853    0.09221    0.43917    1.000
    Si3058   Si       0.60818    0.11166    0.46846    1.000
    N3059    N        0.54510    0.11561    0.38012    1.000
    Si3060   Si       0.59508    0.07446    0.41905    1.000
    Si3061   Si       0.53644    0.12060    0.42228    1.000
    N3062    N        0.73585    0.10179    0.45537    1.000
    Si3063   Si       0.72611    0.09670    0.41361    1.000
    N3064    N        0.68006    0.08261    0.49074    1.000
    Si3065   Si       0.72211    0.08970    0.49438    1.000
    N3066    N        0.63260    0.09009    0.43805    1.000
    Si3067   Si       0.66909    0.07125    0.45129    1.000
    N3068    N        0.69514    0.06734    0.41754    1.000
    N3069    N        0.60037    0.07735    0.57404    1.000
    Si3070   Si       0.52668    0.11327    0.55002    1.000
    N3071    N        0.53331    0.07198    0.55729    1.000
    Si3072   Si       0.56031    0.07107    0.59218    1.000
    N3073    N        0.53108    0.12020    0.50728    1.000
    N3074    N        0.61217    0.08941    0.50548    1.000
    N3075    N        0.72671    0.07038    0.64778    1.000
    Si3076   Si       0.64893    0.07173    0.51838    1.000
    Si3077   Si       0.62475    0.11360    0.56964    1.000
    Si3078   Si       0.70337    0.09305    0.56101    1.000
    N3079    N        0.66105    0.09504    0.55316    1.000
    N3080    N        0.72520    0.11434    0.53110    1.000
    N3081    N        0.71071    0.11966    0.59551    1.000
    Si3082   Si       0.67534    0.11916    0.62090    1.000
    N3083    N        0.54945    0.08763    0.63042    1.000
    N3084    N        0.54807    0.08226    0.70095    1.000
    Si3085   Si       0.52076    0.11676    0.68968    1.000
    Si3086   Si       0.55709    0.08286    0.74376    1.000
    N3087    N        0.66490    0.07701    0.62584    1.000
    Si3088   Si       0.66358    0.12313    0.69194    1.000
    Si3089   Si       0.71945    0.10156    0.67696    1.000
    N3090    N        0.63087    0.10205    0.67764    1.000
    N3091    N        0.69219    0.09683    0.71188    1.000
    Si3092   Si       0.60827    0.10262    0.77528    1.000
    N3093    N        0.60502    0.11422    0.81869    1.000
    N3094    N        0.49622    0.08598    0.83185    1.000
    Si3095   Si       0.52330    0.08982    0.86833    1.000
    N3096    N        0.71079    0.09352    0.90406    1.000
    N3097    N        0.66613    0.11240    0.84933    1.000
    Si3098   Si       0.63373    0.08753    0.83673    1.000
    Si3099   Si       0.70845    0.10178    0.86191    1.000
    N3100    N        0.64654    0.11674    0.76181    1.000
    Si3101   Si       0.68929    0.10486    0.75483    1.000
    N3102    N        0.70633    0.07279    0.77613    1.000
    N3103    N        0.73009    0.07238    0.83803    1.000
    N3104    N        0.58335    0.09799    0.92061    1.000
    N3105    N        0.49428    0.10056    0.97011    1.000
    N3106    N        0.49554    0.08834    0.90221    1.000
    Si3107   Si       0.57480    0.08416    0.96005    1.000
    N3108    N        0.56332    0.11473    0.98833    1.000
    N3109    N        0.54253    0.12738    0.87416    1.000
    N3110    N        0.59404    0.06402    0.75916    1.000
    N3111    N        0.52315    0.06902    0.76507    1.000
    N3112    N        0.52316    0.16936    0.06901    1.000
    N3113    N        0.59717    0.13478    0.04294    1.000
    N3114    N        0.51567    0.16358    0.00142    1.000
    Si3115   Si       0.60994    0.17109    0.02499    1.000
    N3116    N        0.57799    0.16373    0.11569    1.000
    Si3117   Si       0.73821    0.17770    0.03569    1.000
    N3118    N        0.66900    0.14470    0.06412    1.000
    N3119    N        0.73519    0.15025    0.07014    1.000
    Si3120   Si       0.70276    0.12333    0.07981    1.000
    N3121    N        0.70634    0.12664    0.00274    1.000
    Si3122   Si       0.61230    0.17676    0.14127    1.000
    N3123    N        0.50429    0.13212    0.16735    1.000
    N3124    N        0.59305    0.15913    0.23833    1.000
    N3125    N        0.52130    0.14928    0.23206    1.000
    N3126    N        0.71613    0.18430    0.22793    1.000
    N3127    N        0.63530    0.14443    0.15976    1.000
    Si3128   Si       0.72279    0.13978    0.22672    1.000
    Si3129   Si       0.62095    0.15628    0.20295    1.000
    N3130    N        0.64161    0.15785    0.99894    1.000
    N3131    N        0.54252    0.16139    0.28983    1.000
    N3132    N        0.59033    0.16954    0.34346    1.000
    Si3133   Si       0.50527    0.17166    0.26496    1.000
    Si3134   Si       0.55727    0.13919    0.25304    1.000
    Si3135   Si       0.51838    0.14619    0.36806    1.000
    Si3136   Si       0.61459    0.13571    0.32615    1.000
    N3137    N        0.51673    0.18356    0.34724    1.000
    N3138    N        0.62670    0.14672    0.28691    1.000
    N3139    N        0.70327    0.16094    0.33118    1.000
    N3140    N        0.64396    0.13928    0.35934    1.000
    Si3141   Si       0.72898    0.14286    0.30176    1.000
    Si3142   Si       0.68843    0.13148    0.36001    1.000
    Si3143   Si       0.62487    0.17679    0.37192    1.000
    Si3144   Si       0.62314    0.18312    0.26056    1.000
    N3145    N        0.51540    0.15837    0.41023    1.000
    N3146    N        0.55213    0.17234    0.46303    1.000
    Si3147   Si       0.59467    0.17783    0.45313    1.000
    N3148    N        0.61111    0.17488    0.41247    1.000
    N3149    N        0.61800    0.15139    0.47975    1.000
    N3150    N        0.71006    0.13314    0.39963    1.000
    N3151    N        0.72728    0.17166    0.45324    1.000
    Si3152   Si       0.71921    0.17489    0.40973    1.000
    Si3153   Si       0.55481    0.18421    0.32376    1.000
    Si3154   Si       0.57732    0.16378    0.56324    1.000
    N3155    N        0.55247    0.13182    0.58009    1.000
    Si3156   Si       0.53369    0.16237    0.50040    1.000
    N3157    N        0.49196    0.17212    0.49776    1.000
    N3158    N        0.61632    0.14988    0.54694    1.000
    N3159    N        0.71576    0.18129    0.57454    1.000
    N3160    N        0.64158    0.13984    0.60299    1.000
    N3161    N        0.68376    0.16706    0.51050    1.000
    Si3162   Si       0.71763    0.15772    0.53583    1.000
    Si3163   Si       0.63983    0.16827    0.51467    1.000
    Si3164   Si       0.53922    0.12825    0.62351    1.000
    Si3165   Si       0.55501    0.15613    0.73490    1.000
    N3166    N        0.51310    0.14268    0.72458    1.000
    N3167    N        0.53847    0.14644    0.66286    1.000
    N3168    N        0.58897    0.17667    0.71348    1.000
    N3169    N        0.65593    0.16048    0.71013    1.000
    N3170    N        0.69199    0.13373    0.65979    1.000
    Si3171   Si       0.71370    0.17154    0.66077    1.000
    Si3172   Si       0.62915    0.18073    0.60817    1.000
    N3173    N        0.49567    0.12524    0.61709    1.000
    Si3174   Si       0.59885    0.15116    0.84119    1.000
    Si3175   Si       0.53138    0.16563    0.85643    1.000
    N3176    N        0.56475    0.17240    0.82788    1.000
    N3177    N        0.49233    0.16704    0.83803    1.000
    N3178    N        0.72166    0.13970    0.84184    1.000
    Si3179   Si       0.68047    0.15622    0.84580    1.000
    N3180    N        0.70094    0.14556    0.76270    1.000
    Si3181   Si       0.72615    0.15464    0.79845    1.000
    Si3182   Si       0.65869    0.15780    0.75333    1.000
    N3183    N        0.63563    0.17829    0.83954    1.000
    N3184    N        0.55217    0.16113    0.93901    1.000
    Si3185   Si       0.57083    0.13644    0.90751    1.000
    N3186    N        0.60267    0.15502    0.88511    1.000
    Si3187   Si       0.55399    0.15713    0.98190    1.000
    N3188    N        0.57330    0.12174    0.75530    1.000
    Si3189   Si       0.51857    0.18549    0.92598    1.000
    N3190    N        0.67990    0.17479    0.88637    1.000
    Si3191   Si       0.68344    0.16297    0.99421    1.000
    Si3192   Si       0.63712    0.18183    0.88623    1.000
    Si3193   Si       0.70729    0.18314    0.91877    1.000
    N3194    N        0.56695    0.22270    0.08408    1.000
    N3195    N        0.52225    0.22711    0.02597    1.000
    Si3196   Si       0.50359    0.18905    0.03406    1.000
    Si3197   Si       0.61167    0.22112    0.08616    1.000
    Si3198   Si       0.54491    0.18894    0.10331    1.000
    N3199    N        0.57959    0.18850    0.99985    1.000
    N3200    N        0.68783    0.21252    0.08885    1.000
    N3201    N        0.62697    0.19836    0.05281    1.000
    Si3202   Si       0.72718    0.23226    0.07999    1.000
    N3203    N        0.69841    0.19027    0.02513    1.000
    Si3204   Si       0.66995    0.18767    0.05716    1.000
    N3205    N        0.63335    0.20794    0.12212    1.000
    Si3206   Si       0.59015    0.22773    0.19035    1.000
    N3207    N        0.51636    0.19696    0.13524    1.000
    Si3208   Si       0.52146    0.23705    0.15424    1.000
    N3209    N        0.59577    0.18733    0.18001    1.000
    N3210    N        0.64845    0.18567    0.22398    1.000
    N3211    N        0.50587    0.24223    0.19419    1.000
    N3212    N        0.56865    0.24188    0.22637    1.000
    Si3213   Si       0.73273    0.19985    0.15496    1.000
    N3214    N        0.68982    0.20111    0.16580    1.000
    Si3215   Si       0.67480    0.22237    0.13030    1.000
    Si3216   Si       0.68483    0.20430    0.20865    1.000
    N3217    N        0.55623    0.22566    0.31878    1.000
    N3218    N        0.61128    0.21849    0.28004    1.000
    Si3219   Si       0.48838    0.21528    0.34278    1.000
    N3220    N        0.49026    0.23547    0.38259    1.000
    N3221    N        0.71339    0.23273    0.34555    1.000
    N3222    N        0.64714    0.20481    0.34243    1.000
    Si3223   Si       0.68800    0.19757    0.35065    1.000
    Si3224   Si       0.62899    0.23466    0.31645    1.000
    N3225    N        0.49379    0.21453    0.44594    1.000
    N3226    N        0.59960    0.21852    0.46363    1.000
    N3227    N        0.55244    0.22488    0.41220    1.000
    Si3228   Si       0.53029    0.19284    0.43127    1.000
    Si3229   Si       0.58811    0.24220    0.42888    1.000
    N3230    N        0.72600    0.22440    0.49510    1.000
    N3231    N        0.62949    0.24366    0.40985    1.000
    N3232    N        0.66586    0.21086    0.46136    1.000
    Si3233   Si       0.66630    0.22339    0.41991    1.000
    Si3234   Si       0.70108    0.19298    0.48014    1.000
    N3235    N        0.68466    0.19369    0.39317    1.000
    Si3236   Si       0.63422    0.23370    0.48348    1.000
    Si3237   Si       0.52046    0.21135    0.55284    1.000
    N3238    N        0.50329    0.23403    0.51786    1.000
    Si3239   Si       0.57001    0.22517    0.61261    1.000
    N3240    N        0.58730    0.18910    0.59640    1.000
    N3241    N        0.53698    0.23706    0.58583    1.000
    N3242    N        0.48937    0.18656    0.56955    1.000
    N3243    N        0.55015    0.18354    0.53384    1.000
    N3244    N        0.63389    0.21194    0.52102    1.000
    N3245    N        0.65194    0.21332    0.58446    1.000
    Si3246   Si       0.69506    0.21235    0.59757    1.000
    Si3247   Si       0.64672    0.24012    0.55162    1.000
    N3248    N        0.69240    0.20385    0.64021    1.000
    N3249    N        0.55808    0.21764    0.65251    1.000
    N3250    N        0.52082    0.21613    0.69957    1.000
    Si3251   Si       0.52533    0.18891    0.66471    1.000
    Si3252   Si       0.55853    0.23854    0.69282    1.000
    N3253    N        0.58718    0.24109    0.72593    1.000
    Si3254   Si       0.65876    0.22737    0.65795    1.000
    N3255    N        0.62972    0.19344    0.65113    1.000
    Si3256   Si       0.62680    0.18791    0.69438    1.000
    N3257    N        0.64398    0.22930    0.69804    1.000
    N3258    N        0.73477    0.18884    0.69597    1.000
    Si3259   Si       0.55392    0.20690    0.80433    1.000
    N3260    N        0.59097    0.23034    0.79418    1.000
    N3261    N        0.53342    0.23284    0.83110    1.000
    Si3262   Si       0.59230    0.20638    0.75529    1.000
    N3263    N        0.55371    0.18756    0.76651    1.000
    N3264    N        0.59196    0.24004    0.86631    1.000
    Si3265   Si       0.64914    0.20286    0.80726    1.000
    Si3266   Si       0.71646    0.21727    0.80490    1.000
    N3267    N        0.63389    0.18936    0.76857    1.000
    N3268    N        0.69063    0.18449    0.81331    1.000
    N3269    N        0.71368    0.24269    0.84013    1.000
    N3270    N        0.68530    0.18333    0.95589    1.000
    Si3271   Si       0.54896    0.23431    0.87311    1.000
    N3272    N        0.53191    0.19717    0.88543    1.000
    N3273    N        0.50124    0.21603    0.95065    1.000
    Si3274   Si       0.58651    0.23177    0.99167    1.000
    Si3275   Si       0.51821    0.23926    0.98406    1.000
    Si3276   Si       0.66006    0.21935    0.95471    1.000
    N3277    N        0.63719    0.21600    0.91535    1.000
    N3278    N        0.62836    0.23030    0.98248    1.000
    N3279    N        0.73099    0.22049    0.91087    1.000
    N3280    N        0.53546    0.28379    0.06860    1.000
    N3281    N        0.58618    0.25577    0.02761    1.000
    Si3282   Si       0.53953    0.29678    0.10983    1.000
    Si3283   Si       0.54938    0.24678    0.05294    1.000
    Si3284   Si       0.61537    0.29982    0.09768    1.000
    Si3285   Si       0.62226    0.27566    0.03834    1.000
    N3286    N        0.62642    0.26074    0.07982    1.000
    N3287    N        0.72224    0.29107    0.01456    1.000
    N3288    N        0.72760    0.27613    0.08216    1.000
    N3289    N        0.65347    0.29257    0.01543    1.000
    N3290    N        0.58062    0.29513    0.12240    1.000
    N3291    N        0.50961    0.26947    0.12706    1.000
    Si3292   Si       0.58330    0.28281    0.16401    1.000
    Si3293   Si       0.53458    0.26547    0.21820    1.000
    N3294    N        0.55600    0.29938    0.19411    1.000
    N3295    N        0.61973    0.25899    0.18117    1.000
    N3296    N        0.68507    0.24642    0.22039    1.000
    N3297    N        0.56422    0.24294    0.15839    1.000
    Si3298   Si       0.71724    0.27341    0.24382    1.000
    Si3299   Si       0.65141    0.26980    0.20778    1.000
    Si3300   Si       0.72886    0.27264    0.12722    1.000
    N3301    N        0.68738    0.26357    0.13978    1.000
    Si3302   Si       0.56873    0.26333    0.33043    1.000
    N3303    N        0.57568    0.28309    0.29070    1.000
    N3304    N        0.54277    0.27968    0.36360    1.000
    Si3305   Si       0.59228    0.25333    0.26155    1.000
    N3306    N        0.51196    0.27741    0.25572    1.000
    N3307    N        0.60872    0.25929    0.34569    1.000
    N3308    N        0.66342    0.26369    0.30098    1.000
    Si3309   Si       0.69463    0.26909    0.33065    1.000
    Si3310   Si       0.65125    0.29483    0.27440    1.000
    N3311    N        0.72365    0.29901    0.31894    1.000
    N3312    N        0.67442    0.28042    0.36739    1.000
    N3313    N        0.51494    0.28745    0.42744    1.000
    Si3314   Si       0.52565    0.25654    0.39868    1.000
    N3315    N        0.57685    0.28031    0.44377    1.000
    Si3316   Si       0.54210    0.30035    0.45796    1.000
    Si3317   Si       0.63153    0.27217    0.37855    1.000
    Si3318   Si       0.70256    0.28510    0.40106    1.000
    N3319    N        0.63141    0.27708    0.48155    1.000
    Si3320   Si       0.61736    0.29872    0.44678    1.000
    N3321    N        0.72385    0.28628    0.48536    1.000
    N3322    N        0.69815    0.25289    0.42761    1.000
    Si3323   Si       0.72732    0.25111    0.45954    1.000
    N3324    N        0.62842    0.27524    0.24432    1.000
    Si3325   Si       0.52551    0.27867    0.58309    1.000
    Si3326   Si       0.49721    0.27635    0.51676    1.000
    Si3327   Si       0.59918    0.29112    0.58501    1.000
    N3328    N        0.59509    0.26049    0.61699    1.000
    N3329    N        0.53088    0.29876    0.50027    1.000
    N3330    N        0.62106    0.27448    0.54972    1.000
    Si3331   Si       0.72620    0.26522    0.52167    1.000
    N3332    N        0.71875    0.25064    0.59867    1.000
    N3333    N        0.68642    0.26088    0.54142    1.000
    Si3334   Si       0.62659    0.30133    0.51769    1.000
    Si3335   Si       0.69069    0.30266    0.55555    1.000
    Si3336   Si       0.50335    0.27953    0.68791    1.000
    N3337    N        0.54609    0.27938    0.68679    1.000
    N3338    N        0.61520    0.28896    0.68456    1.000
    N3339    N        0.65027    0.28567    0.74233    1.000
    N3340    N        0.71769    0.26148    0.70745    1.000
    Si3341   Si       0.69406    0.28094    0.61976    1.000
    N3342    N        0.72293    0.29921    0.64525    1.000
    Si3343   Si       0.69337    0.27714    0.74722    1.000
    Si3344   Si       0.62501    0.26180    0.71803    1.000
    Si3345   Si       0.62183    0.28440    0.64240    1.000
    N3346    N        0.65926    0.26524    0.63730    1.000
    N3347    N        0.49052    0.29242    0.55602    1.000
    N3348    N        0.56185    0.29905    0.56621    1.000
    N3349    N        0.52264    0.28763    0.79210    1.000
    Si3350   Si       0.50149    0.25830    0.81631    1.000
    Si3351   Si       0.60807    0.25488    0.82564    1.000
    N3352    N        0.59875    0.29449    0.81429    1.000
    Si3353   Si       0.49332    0.29666    0.76190    1.000
    Si3354   Si       0.67719    0.26702    0.84399    1.000
    N3355    N        0.70576    0.24490    0.77227    1.000
    N3356    N        0.53969    0.26648    0.90173    1.000
    Si3357   Si       0.56319    0.27923    0.93508    1.000
    N3358    N        0.60266    0.28742    0.91311    1.000
    Si3359   Si       0.51167    0.29464    0.88263    1.000
    N3360    N        0.55881    0.24892    0.96451    1.000
    N3361    N        0.49039    0.27051    0.97772    1.000
    Si3362   Si       0.68724    0.28804    0.98925    1.000
    N3363    N        0.72145    0.28986    0.91280    1.000
    N3364    N        0.68706    0.25613    0.95926    1.000
    Si3365   Si       0.62192    0.25027    0.89573    1.000
    N3366    N        0.65447    0.27560    0.88011    1.000
    Si3367   Si       0.72405    0.25508    0.93853    1.000
    N3368    N        0.64942    0.24426    0.81908    1.000
    N3369    N        0.51655    0.32428    0.01313    1.000
    Si3370   Si       0.51992    0.32371    0.05602    1.000
    N3371    N        0.55032    0.34629    0.07813    1.000
    Si3372   Si       0.58650    0.35161    0.05487    1.000
    N3373    N        0.57930    0.35254    0.01253    1.000
    N3374    N        0.61492    0.31879    0.05787    1.000
    N3375    N        0.68714    0.33310    0.06152    1.000
    Si3376   Si       0.68186    0.34218    0.10402    1.000
    Si3377   Si       0.65247    0.33070    0.03620    1.000
    Si3378   Si       0.72560    0.31034    0.05487    1.000
    N3379    N        0.64760    0.31779    0.11740    1.000
    N3380    N        0.52199    0.33000    0.13390    1.000
    Si3381   Si       0.53712    0.33463    0.17856    1.000
    N3382    N        0.57283    0.35729    0.15863    1.000
    N3383    N        0.72333    0.34776    0.20506    1.000
    N3384    N        0.70704    0.32709    0.13574    1.000
    N3385    N        0.66637    0.30941    0.19231    1.000
    Si3386   Si       0.68411    0.33622    0.22041    1.000
    Si3387   Si       0.73142    0.35355    0.16207    1.000
    N3388    N        0.49021    0.32068    0.18659    1.000
    Si3389   Si       0.67308    0.30291    0.14905    1.000
    Si3390   Si       0.58471    0.32583    0.29399    1.000
    N3391    N        0.57897    0.33883    0.33586    1.000
    Si3392   Si       0.54178    0.32298    0.35130    1.000
    N3393    N        0.55436    0.34256    0.26501    1.000
    Si3394   Si       0.52019    0.31727    0.27361    1.000
    N3395    N        0.51400    0.31499    0.31799    1.000
    N3396    N        0.62642    0.32869    0.28456    1.000
    Si3397   Si       0.71103    0.32995    0.29160    1.000
    N3398    N        0.72556    0.34896    0.36628    1.000
    N3399    N        0.69140    0.30721    0.25788    1.000
    N3400    N        0.68271    0.35614    0.31098    1.000
    N3401    N        0.52171    0.34376    0.38265    1.000
    N3402    N        0.54156    0.34332    0.45024    1.000
    Si3403   Si       0.49301    0.32172    0.40935    1.000
    Si3404   Si       0.61096    0.36344    0.49175    1.000
    Si3405   Si       0.70331    0.35914    0.40398    1.000
    Si3406   Si       0.62519    0.34804    0.41190    1.000
    N3407    N        0.69811    0.32168    0.42557    1.000
    Si3408   Si       0.72017    0.32396    0.46456    1.000
    N3409    N        0.62337    0.34219    0.45601    1.000
    N3410    N        0.62383    0.30663    0.40308    1.000
    N3411    N        0.70571    0.36188    0.48091    1.000
    Si3412   Si       0.55153    0.32278    0.53070    1.000
    N3413    N        0.59347    0.33155    0.51428    1.000
    N3414    N        0.52052    0.31258    0.61320    1.000
    Si3415   Si       0.52798    0.35310    0.59699    1.000
    N3416    N        0.53137    0.35851    0.55194    1.000
    Si3417   Si       0.62644    0.32273    0.74575    1.000
    N3418    N        0.61486    0.32220    0.61514    1.000
    N3419    N        0.66403    0.32189    0.52732    1.000
    N3420    N        0.67740    0.31442    0.59532    1.000
    Si3421   Si       0.68249    0.35854    0.51825    1.000
    Si3422   Si       0.65381    0.34375    0.61816    1.000
    N3423    N        0.73382    0.30689    0.55287    1.000
    N3424    N        0.51425    0.33075    0.73583    1.000
    N3425    N        0.56894    0.34368    0.67041    1.000
    Si3426   Si       0.59280    0.35469    0.63497    1.000
    N3427    N        0.58444    0.31740    0.73569    1.000
    Si3428   Si       0.57640    0.30902    0.69450    1.000
    N3429    N        0.73599    0.34409    0.69368    1.000
    Si3430   Si       0.71250    0.34059    0.65768    1.000
    N3431    N        0.66845    0.33948    0.65791    1.000
    Si3432   Si       0.73625    0.30108    0.70910    1.000
    N3433    N        0.71567    0.31470    0.74681    1.000
    N3434    N        0.55561    0.34908    0.79247    1.000
    N3435    N        0.54151    0.31521    0.85380    1.000
    Si3436   Si       0.55491    0.30745    0.81261    1.000
    Si3437   Si       0.55337    0.34412    0.74973    1.000
    N3438    N        0.62120    0.33903    0.85781    1.000
    Si3439   Si       0.63244    0.32210    0.81865    1.000
    N3440    N        0.63417    0.34691    0.78300    1.000
    Si3441   Si       0.70581    0.34071    0.83527    1.000
    N3442    N        0.67606    0.30876    0.82706    1.000
    Si3443   Si       0.72640    0.35276    0.76088    1.000
    N3444    N        0.72946    0.35430    0.92094    1.000
    Si3445   Si       0.53093    0.35403    0.86959    1.000
    Si3446   Si       0.54586    0.33971    0.98689    1.000
    N3447    N        0.55712    0.31793    0.95117    1.000
    N3448    N        0.50254    0.33607    0.89636    1.000
    Si3449   Si       0.56864    0.35572    0.93540    1.000
    Si3450   Si       0.69829    0.32442    0.92778    1.000
    Si3451   Si       0.63191    0.31291    0.89262    1.000
    N3452    N        0.69047    0.32829    0.97084    1.000
    N3453    N        0.65921    0.33711    0.91502    1.000
    N3454    N        0.54468    0.40641    0.11606    1.000
    Si3455   Si       0.55144    0.36171    0.11881    1.000
    N3456    N        0.61215    0.38506    0.06481    1.000
    N3457    N        0.71185    0.38799    0.01186    1.000
    Si3458   Si       0.63238    0.40077    0.09929    1.000
    Si3459   Si       0.63795    0.40702    0.03658    1.000
    N3460    N        0.66795    0.38159    0.11334    1.000
    N3461    N        0.64751    0.36867    0.01248    1.000
    N3462    N        0.49039    0.40660    0.14844    1.000
    Si3463   Si       0.55596    0.37735    0.23805    1.000
    Si3464   Si       0.51836    0.41003    0.18195    1.000
    Si3465   Si       0.59950    0.38907    0.17508    1.000
    N3466    N        0.52570    0.36859    0.20501    1.000
    N3467    N        0.59608    0.38124    0.22038    1.000
    N3468    N        0.60806    0.40757    0.13194    1.000
    Si3469   Si       0.67325    0.40624    0.15191    1.000
    Si3470   Si       0.64054    0.40325    0.22999    1.000
    N3471    N        0.66518    0.36764    0.24056    1.000
    N3472    N        0.64396    0.39989    0.18272    1.000
    N3473    N        0.71442    0.39450    0.16256    1.000
    N3474    N        0.49048    0.39545    0.07595    1.000
    Si3475   Si       0.50535    0.41864    0.10844    1.000
    N3476    N        0.55231    0.40274    0.35332    1.000
    Si3477   Si       0.58747    0.37701    0.35768    1.000
    N3478    N        0.55365    0.41856    0.25378    1.000
    N3479    N        0.49349    0.41750    0.37022    1.000
    Si3480   Si       0.65020    0.36433    0.28173    1.000
    N3481    N        0.62442    0.40027    0.34836    1.000
    N3482    N        0.62643    0.40125    0.27948    1.000
    Si3483   Si       0.70614    0.37763    0.34028    1.000
    N3484    N        0.69574    0.40977    0.36729    1.000
    N3485    N        0.72623    0.40600    0.31343    1.000
    N3486    N        0.58976    0.36914    0.40070    1.000
    Si3487   Si       0.50732    0.37037    0.45447    1.000
    Si3488   Si       0.56839    0.37449    0.43732    1.000
    N3489    N        0.58110    0.38998    0.47554    1.000
    N3490    N        0.52966    0.40062    0.42784    1.000
    Si3491   Si       0.52087    0.38594    0.38647    1.000
    N3492    N        0.67121    0.42315    0.46797    1.000
    Si3493   Si       0.70837    0.40145    0.46322    1.000
    N3494    N        0.66088    0.36970    0.40044    1.000
    N3495    N        0.72621    0.39249    0.42620    1.000
    Si3496   Si       0.65380    0.40729    0.38075    1.000
    Si3497   Si       0.52067    0.39443    0.53072    1.000
    N3498    N        0.56569    0.37355    0.60890    1.000
    N3499    N        0.49236    0.37514    0.61126    1.000
    Si3500   Si       0.56616    0.41638    0.61932    1.000
    N3501    N        0.72817    0.41983    0.58923    1.000
    N3502    N        0.65760    0.38450    0.59757    1.000
    Si3503   Si       0.69229    0.40197    0.57472    1.000
    N3504    N        0.64526    0.38112    0.51235    1.000
    N3505    N        0.70720    0.36841    0.55246    1.000
    Si3506   Si       0.55021    0.38246    0.68433    1.000
    N3507    N        0.55820    0.38023    0.72786    1.000
    N3508    N        0.50673    0.38078    0.68196    1.000
    N3509    N        0.55960    0.41677    0.66079    1.000
    N3510    N        0.71708    0.38072    0.64153    1.000
    Si3511   Si       0.63880    0.41314    0.62574    1.000
    Si3512   Si       0.64818    0.36846    0.68362    1.000
    Si3513   Si       0.70239    0.41554    0.65964    1.000
    N3514    N        0.67598    0.40075    0.69088    1.000
    N3515    N        0.72610    0.38943    0.73680    1.000
    N3516    N        0.62119    0.38152    0.65162    1.000
    N3517    N        0.63507    0.36047    0.72372    1.000
    N3518    N        0.49645    0.37603    0.49649    1.000
    N3519    N        0.58809    0.39821    0.83628    1.000
    N3520    N        0.51871    0.38412    0.84150    1.000
    Si3521   Si       0.55108    0.38785    0.81505    1.000
    N3522    N        0.60433    0.41132    0.77225    1.000
    Si3523   Si       0.56605    0.41447    0.75197    1.000
    Si3524   Si       0.60243    0.37624    0.87011    1.000
    Si3525   Si       0.68302    0.36807    0.98640    1.000
    N3526    N        0.65509    0.41279    0.82904    1.000
    Si3527   Si       0.63599    0.38440    0.76003    1.000
    N3528    N        0.67138    0.40778    0.76436    1.000
    N3529    N        0.69473    0.37208    0.86260    1.000
    Si3530   Si       0.68925    0.40479    0.80406    1.000
    N3531    N        0.71087    0.36512    0.79896    1.000
    Si3532   Si       0.66849    0.40606    0.86987    1.000
    N3533    N        0.53978    0.37537    0.96082    1.000
    N3534    N        0.60753    0.36791    0.94933    1.000
    Si3535   Si       0.60850    0.37709    0.99070    1.000
    N3536    N        0.56756    0.36667    0.89316    1.000
    Si3537   Si       0.53249    0.41571    0.95971    1.000
    N3538    N        0.67445    0.39466    0.95115    1.000
    N3539    N        0.63290    0.39641    0.89301    1.000
    Si3540   Si       0.73369    0.37122    0.88283    1.000
    Si3541   Si       0.64426    0.37576    0.92921    1.000
    N3542    N        0.49865    0.46032    0.09942    1.000
    N3543    N        0.56172    0.47054    0.02700    1.000
    Si3544   Si       0.58987    0.45607    0.99906    1.000
    N3545    N        0.56183    0.47231    0.11887    1.000
    N3546    N        0.61060    0.41841    0.00189    1.000
    N3547    N        0.67429    0.43293    0.23406    1.000
    Si3548   Si       0.52916    0.47191    0.99293    1.000
    Si3549   Si       0.67650    0.46236    0.05766    1.000
    N3550    N        0.71220    0.46422    0.08025    1.000
    N3551    N        0.67274    0.44497    0.01565    1.000
    N3552    N        0.64532    0.43357    0.07127    1.000
    Si3553   Si       0.70992    0.42938    0.00122    1.000
    N3554    N        0.56119    0.42184    0.17847    1.000
    Si3555   Si       0.57343    0.43315    0.13697    1.000
    Si3556   Si       0.58275    0.45304    0.19965    1.000
    N3557    N        0.49948    0.43358    0.21297    1.000
    Si3558   Si       0.52842    0.45066    0.24042    1.000
    N3559    N        0.55424    0.47852    0.22114    1.000
    N3560    N        0.61405    0.44566    0.22877    1.000
    N3561    N        0.60482    0.46726    0.16385    1.000
    Si3562   Si       0.71050    0.46409    0.12449    1.000
    N3563    N        0.72827    0.45714    0.19733    1.000
    Si3564   Si       0.71566    0.44665    0.23752    1.000
    N3565    N        0.67443    0.44802    0.14269    1.000
    Si3566   Si       0.64735    0.47727    0.15625    1.000
    Si3567   Si       0.65048    0.46848    0.22642    1.000
    Si3568   Si       0.52988    0.44024    0.35645    1.000
    N3569    N        0.59607    0.45097    0.30347    1.000
    N3570    N        0.53416    0.47021    0.32735    1.000
    Si3571   Si       0.59507    0.43017    0.26456    1.000
    N3572    N        0.66915    0.44732    0.31123    1.000
    Si3573   Si       0.70611    0.43920    0.33133    1.000
    N3574    N        0.72734    0.46723    0.35437    1.000
    Si3575   Si       0.63059    0.42631    0.31510    1.000
    Si3576   Si       0.53373    0.44475    0.43247    1.000
    N3577    N        0.54470    0.45757    0.39234    1.000
    N3578    N        0.56470    0.45456    0.46090    1.000
    Si3579   Si       0.57640    0.42812    0.49272    1.000
    N3580    N        0.49309    0.45676    0.43783    1.000
    N3581    N        0.63835    0.43537    0.40710    1.000
    Si3582   Si       0.72871    0.43643    0.39820    1.000
    N3583    N        0.73597    0.42494    0.49016    1.000
    Si3584   Si       0.66247    0.45392    0.43871    1.000
    N3585    N        0.69881    0.46081    0.41721    1.000
    N3586    N        0.53935    0.44444    0.59963    1.000
    Si3587   Si       0.54734    0.45794    0.55772    1.000
    N3588    N        0.60534    0.43655    0.61397    1.000
    N3589    N        0.54919    0.42599    0.52621    1.000
    N3590    N        0.61392    0.44382    0.50631    1.000
    Si3591   Si       0.61100    0.47614    0.59641    1.000
    N3592    N        0.58613    0.47564    0.55900    1.000
    Si3593   Si       0.73031    0.46528    0.50413    1.000
    N3594    N        0.67170    0.43002    0.54619    1.000
    Si3595   Si       0.67663    0.47314    0.55342    1.000
    N3596    N        0.72011    0.47260    0.54551    1.000
    Si3597   Si       0.65345    0.42406    0.50832    1.000
    Si3598   Si       0.51489    0.46433    0.62819    1.000
    Si3599   Si       0.56675    0.45196    0.68379    1.000
    N3600    N        0.55818    0.44832    0.72544    1.000
    N3601    N        0.60172    0.47568    0.67798    1.000
    N3602    N        0.67225    0.43985    0.63941    1.000
    N3603    N        0.73497    0.43759    0.67672    1.000
    N3604    N        0.69632    0.46148    0.72481    1.000
    Si3605   Si       0.72932    0.47394    0.69975    1.000
    Si3606   Si       0.67884    0.48150    0.62952    1.000
    Si3607   Si       0.69262    0.41814    0.72722    1.000
    Si3608   Si       0.51095    0.45049    0.79635    1.000
    N3609    N        0.53750    0.47598    0.82189    1.000
    N3610    N        0.61587    0.46555    0.82446    1.000
    Si3611   Si       0.61724    0.42342    0.81423    1.000
    N3612    N        0.71473    0.43834    0.82378    1.000
    Si3613   Si       0.73195    0.44034    0.86576    1.000
    N3614    N        0.52229    0.43149    0.91823    1.000
    N3615    N        0.56209    0.44895    0.96448    1.000
    Si3616   Si       0.55027    0.46794    0.92614    1.000
    N3617    N        0.50551    0.43586    0.98696    1.000
    Si3618   Si       0.65943    0.47595    0.98867    1.000
    Si3619   Si       0.68640    0.43370    0.93394    1.000
    N3620    N        0.65854    0.46348    0.94719    1.000
    N3621    N        0.69528    0.43258    0.89120    1.000
    N3622    N        0.72250    0.43929    0.96043    1.000
    N3623    N        0.50806    0.47654    0.76323    1.000
    N3624    N        0.53706    0.41581    0.78669    1.000
    Si3625   Si       0.56422    0.50790    0.05198    1.000
    N3626    N        0.52770    0.51592    0.07322    1.000
    N3627    N        0.59750    0.51257    0.08236    1.000
    Si3628   Si       0.52540    0.49194    0.11120    1.000
    Si3629   Si       0.49643    0.52663    0.04525    1.000
    N3630    N        0.50733    0.50774    0.00791    1.000
    N3631    N        0.66098    0.49438    0.19314    1.000
    Si3632   Si       0.60900    0.53772    0.99836    1.000
    N3633    N        0.66659    0.50326    0.05475    1.000
    Si3634   Si       0.64051    0.52022    0.08627    1.000
    Si3635   Si       0.67291    0.53545    0.02382    1.000
    Si3636   Si       0.59260    0.49973    0.12932    1.000
    Si3637   Si       0.55510    0.51615    0.23960    1.000
    N3638    N        0.51067    0.51382    0.14596    1.000
    N3639    N        0.57842    0.53342    0.15355    1.000
    N3640    N        0.59567    0.53312    0.22717    1.000
    N3641    N        0.63791    0.50283    0.12505    1.000
    Si3642   Si       0.68482    0.53119    0.19722    1.000
    N3643    N        0.72460    0.52234    0.21270    1.000
    N3644    N        0.72472    0.50158    0.14191    1.000
    N3645    N        0.56127    0.51052    0.28282    1.000
    N3646    N        0.58284    0.50751    0.35271    1.000
    Si3647   Si       0.51283    0.49909    0.30168    1.000
    Si3648   Si       0.57354    0.48663    0.31652    1.000
    N3649    N        0.50534    0.47431    0.26657    1.000
    N3650    N        0.65100    0.49750    0.25877    1.000
    N3651    N        0.68297    0.51103    0.32211    1.000
    Si3652   Si       0.71707    0.50802    0.34760    1.000
    Si3653   Si       0.67713    0.48426    0.28930    1.000
    Si3654   Si       0.74021    0.51495    0.25407    1.000
    N3655    N        0.71557    0.47876    0.26764    1.000
    N3656    N        0.49498    0.52108    0.48434    1.000
    N3657    N        0.51812    0.52177    0.38713    1.000
    Si3658   Si       0.55407    0.49873    0.38556    1.000
    N3659    N        0.58136    0.50877    0.42049    1.000
    Si3660   Si       0.59500    0.48772    0.45538    1.000
    N3661    N        0.59073    0.50803    0.49366    1.000
    N3662    N        0.64040    0.48663    0.45548    1.000
    Si3663   Si       0.66657    0.50643    0.48505    1.000
    N3664    N        0.73383    0.53255    0.44701    1.000
    N3665    N        0.70185    0.48517    0.47788    1.000
    N3666    N        0.71569    0.53118    0.38387    1.000
    Si3667   Si       0.72600    0.48909    0.44063    1.000
    Si3668   Si       0.50829    0.52163    0.52673    1.000
    Si3669   Si       0.61091    0.48506    0.52255    1.000
    N3670    N        0.51327    0.48050    0.54189    1.000
    N3671    N        0.49055    0.49370    0.60931    1.000
    N3672    N        0.65335    0.49450    0.52479    1.000
    N3673    N        0.72111    0.48656    0.61331    1.000
    N3674    N        0.65611    0.48107    0.59137    1.000
    N3675    N        0.59806    0.51032    0.62051    1.000
    Si3676   Si       0.57616    0.50951    0.65853    1.000
    Si3677   Si       0.51379    0.51423    0.67732    1.000
    N3678    N        0.53810    0.51479    0.71492    1.000
    N3679    N        0.54119    0.48322    0.65914    1.000
    Si3680   Si       0.54623    0.48498    0.74506    1.000
    Si3681   Si       0.73760    0.52083    0.63580    1.000
    N3682    N        0.70272    0.53260    0.74375    1.000
    N3683    N        0.72854    0.51158    0.67756    1.000
    N3684    N        0.66214    0.50878    0.65930    1.000
    N3685    N        0.64155    0.51346    0.73242    1.000
    Si3686   Si       0.63058    0.50436    0.69021    1.000
    N3687    N        0.60125    0.53557    0.68712    1.000
    N3688    N        0.58045    0.51863    0.84840    1.000
    N3689    N        0.57700    0.49357    0.77354    1.000
    Si3690   Si       0.52376    0.50559    0.85101    1.000
    Si3691   Si       0.57896    0.48641    0.81726    1.000
    Si3692   Si       0.60721    0.52324    0.75995    1.000
    N3693    N        0.67819    0.51517    0.98666    1.000
    Si3694   Si       0.71105    0.48392    0.82174    1.000
    N3695    N        0.68115    0.50846    0.84699    1.000
    Si3696   Si       0.64872    0.49313    0.81867    1.000
    N3697    N        0.62593    0.52804    0.80092    1.000
    N3698    N        0.67841    0.48033    0.78905    1.000
    Si3699   Si       0.68073    0.49421    0.74830    1.000
    N3700    N        0.73921    0.50990    0.79967    1.000
    Si3701   Si       0.49521    0.49650    0.90692    1.000
    Si3702   Si       0.57584    0.51425    0.88942    1.000
    N3703    N        0.53589    0.49596    0.89203    1.000
    N3704    N        0.52058    0.49258    0.95025    1.000
    N3705    N        0.59373    0.48253    0.91177    1.000
    Si3706   Si       0.50467    0.52988    0.96549    1.000
    N3707    N        0.71464    0.52055    0.92162    1.000
    Si3708   Si       0.68258    0.53632    0.94849    1.000
    Si3709   Si       0.62451    0.48922    0.93942    1.000
    N3710    N        0.64187    0.52690    0.92979    1.000
    N3711    N        0.61469    0.49254    0.98652    1.000
    Si3712   Si       0.71360    0.51640    0.87922    1.000
    Si3713   Si       0.54382    0.56841    0.00912    1.000
    N3714    N        0.50556    0.56788    0.02864    1.000
    N3715    N        0.65899    0.55954    0.09252    1.000
    N3716    N        0.69061    0.57360    0.03398    1.000
    N3717    N        0.63509    0.55386    0.03038    1.000
    Si3718   Si       0.72954    0.58601    0.02167    1.000
    Si3719   Si       0.65402    0.58359    0.05555    1.000
    N3720    N        0.73033    0.55991    0.10313    1.000
    N3721    N        0.55097    0.57991    0.19003    1.000
    Si3722   Si       0.59077    0.55605    0.18756    1.000
    N3723    N        0.51655    0.57890    0.13163    1.000
    Si3724   Si       0.52969    0.58036    0.22969    1.000
    Si3725   Si       0.53555    0.54935    0.15599    1.000
    N3726    N        0.51838    0.53749    0.23266    1.000
    Si3727   Si       0.69050    0.56855    0.12106    1.000
    N3728    N        0.61230    0.59289    0.18120    1.000
    N3729    N        0.67983    0.55944    0.16198    1.000
    N3730    N        0.65951    0.55773    0.21999    1.000
    Si3731   Si       0.65451    0.58586    0.18673    1.000
    N3732    N        0.48121    0.57139    0.18685    1.000
    N3733    N        0.57212    0.53786    0.02166    1.000
    N3734    N        0.58677    0.56978    0.32103    1.000
    Si3735   Si       0.55630    0.55237    0.29388    1.000
    N3736    N        0.55707    0.58231    0.26195    1.000
    Si3737   Si       0.50537    0.55212    0.35816    1.000
    Si3738   Si       0.59851    0.54785    0.35601    1.000
    N3739    N        0.51599    0.59330    0.36393    1.000
    N3740    N        0.51996    0.53992    0.31824    1.000
    Si3741   Si       0.61820    0.59175    0.30034    1.000
    N3742    N        0.64193    0.55903    0.28660    1.000
    N3743    N        0.70071    0.57374    0.32954    1.000
    Si3744   Si       0.66582    0.55010    0.32480    1.000
    N3745    N        0.64164    0.55735    0.36256    1.000
    Si3746   Si       0.63315    0.53659    0.24997    1.000
    N3747    N        0.57758    0.56989    0.38726    1.000
    N3748    N        0.55892    0.56115    0.45659    1.000
    Si3749   Si       0.58763    0.55253    0.42426    1.000
    Si3750   Si       0.53136    0.59279    0.44968    1.000
    Si3751   Si       0.72322    0.55980    0.41490    1.000
    N3752    N        0.62986    0.55816    0.43405    1.000
    N3753    N        0.69139    0.58885    0.41230    1.000
    Si3754   Si       0.64981    0.57750    0.39933    1.000
    Si3755   Si       0.63877    0.57502    0.47281    1.000
    N3756    N        0.66967    0.55135    0.48985    1.000
    N3757    N        0.51774    0.56245    0.59788    1.000
    N3758    N        0.53993    0.55094    0.52668    1.000
    Si3759   Si       0.55680    0.57184    0.57889    1.000
    N3760    N        0.59580    0.55213    0.56973    1.000
    N3761    N        0.60609    0.57566    0.50267    1.000
    Si3762   Si       0.60741    0.58500    0.54478    1.000
    Si3763   Si       0.60378    0.55335    0.61199    1.000
    N3764    N        0.57755    0.58828    0.61556    1.000
    Si3765   Si       0.57267    0.54751    0.49478    1.000
    Si3766   Si       0.66522    0.55523    0.73029    1.000
    N3767    N        0.68884    0.56059    0.56278    1.000
    Si3768   Si       0.70866    0.58180    0.59329    1.000
    Si3769   Si       0.69579    0.57212    0.52233    1.000
    N3770    N        0.54903    0.59360    0.71261    1.000
    Si3771   Si       0.56380    0.55095    0.70641    1.000
    Si3772   Si       0.51777    0.56691    0.64011    1.000
    N3773    N        0.54743    0.54375    0.66052    1.000
    Si3774   Si       0.72024    0.54485    0.70397    1.000
    N3775    N        0.71096    0.55484    0.62666    1.000
    N3776    N        0.68481    0.56790    0.69259    1.000
    Si3777   Si       0.67240    0.55011    0.65164    1.000
    N3778    N        0.64133    0.56793    0.62690    1.000
    Si3779   Si       0.52755    0.59283    0.52835    1.000
    N3780    N        0.58054    0.55540    0.74921    1.000
    N3781    N        0.57397    0.57865    0.81920    1.000
    Si3782   Si       0.52867    0.58061    0.81914    1.000
    N3783    N        0.52044    0.58609    0.77574    1.000
    Si3784   Si       0.60318    0.55097    0.83150    1.000
    N3785    N        0.51219    0.54918    0.84640    1.000
    Si3786   Si       0.55777    0.59306    0.75515    1.000
    N3787    N        0.63744    0.59585    0.90797    1.000
    Si3788   Si       0.72332    0.54715    0.78108    1.000
    Si3789   Si       0.67934    0.55255    0.84404    1.000
    N3790    N        0.64000    0.57548    0.84186    1.000
    N3791    N        0.69088    0.56245    0.80382    1.000
    N3792    N        0.64481    0.58527    0.75743    1.000
    Si3793   Si       0.65423    0.58426    0.80012    1.000
    N3794    N        0.57980    0.55217    0.91234    1.000
    Si3795   Si       0.55083    0.58203    0.93254    1.000
    N3796    N        0.53339    0.56143    0.96532    1.000
    N3797    N        0.60626    0.56964    0.96923    1.000
    N3798    N        0.52302    0.59087    0.89952    1.000
    Si3799   Si       0.49203    0.56363    0.88367    1.000
    N3800    N        0.71720    0.55811    0.86489    1.000
    Si3801   Si       0.61758    0.56276    0.92699    1.000
    N3802    N        0.68678    0.57807    0.95154    1.000
    Si3803   Si       0.72468    0.59753    0.95569    1.000
    Si3804   Si       0.73327    0.59561    0.87482    1.000
    Si3805   Si       0.55800    0.63510    0.04402    1.000
    N3806    N        0.55422    0.61140    0.08127    1.000
    N3807    N        0.50139    0.64420    0.11077    1.000
    N3808    N        0.56345    0.60555    0.01312    1.000
    N3809    N        0.51836    0.64979    0.03346    1.000
    Si3810   Si       0.53499    0.61589    0.11778    1.000
    N3811    N        0.64789    0.62604    0.05989    1.000
    Si3812   Si       0.67099    0.64439    0.09543    1.000
    N3813    N        0.69246    0.61091    0.11500    1.000
    Si3814   Si       0.72945    0.61727    0.09183    1.000
    Si3815   Si       0.63051    0.65272    0.03167    1.000
    N3816    N        0.70912    0.65369    0.07370    1.000
    N3817    N        0.50476    0.61589    0.23779    1.000
    N3818    N        0.55737    0.63601    0.14992    1.000
    Si3819   Si       0.52213    0.64072    0.20750    1.000
    Si3820   Si       0.57624    0.61681    0.18340    1.000
    N3821    N        0.56553    0.64173    0.21674    1.000
    N3822    N        0.67519    0.62317    0.19073    1.000
    Si3823   Si       0.71845    0.62472    0.19382    1.000
    N3824    N        0.72727    0.61037    0.23210    1.000
    N3825    N        0.57485    0.63381    0.35713    1.000
    Si3826   Si       0.50425    0.63497    0.27820    1.000
    Si3827   Si       0.57232    0.62400    0.25893    1.000
    N3828    N        0.54751    0.64335    0.28695    1.000
    N3829    N        0.61327    0.62431    0.27233    1.000
    Si3830   Si       0.61771    0.63667    0.36058    1.000
    Si3831   Si       0.68566    0.61487    0.33231    1.000
    N3832    N        0.64188    0.61873    0.32926    1.000
    N3833    N        0.69150    0.63012    0.29294    1.000
    N3834    N        0.70670    0.63790    0.36431    1.000
    Si3835   Si       0.64982    0.64701    0.28287    1.000
    Si3836   Si       0.71369    0.64210    0.25933    1.000
    N3837    N        0.54820    0.62106    0.42188    1.000
    N3838    N        0.52435    0.60915    0.48879    1.000
    Si3839   Si       0.55339    0.60575    0.38187    1.000
    Si3840   Si       0.51327    0.65170    0.48828    1.000
    N3841    N        0.64995    0.61792    0.46529    1.000
    Si3842   Si       0.69815    0.63122    0.40687    1.000
    N3843    N        0.63369    0.61916    0.39666    1.000
    N3844    N        0.73362    0.64371    0.42796    1.000
    Si3845   Si       0.63760    0.64276    0.43292    1.000
    Si3846   Si       0.67232    0.64330    0.49138    1.000
    N3847    N        0.56510    0.60607    0.54964    1.000
    Si3848   Si       0.55984    0.64829    0.56042    1.000
    N3849    N        0.55120    0.65346    0.60134    1.000
    N3850    N        0.48983    0.60429    0.54922    1.000
    N3851    N        0.65273    0.62722    0.67594    1.000
    Si3852   Si       0.72670    0.64710    0.57083    1.000
    N3853    N        0.68359    0.61327    0.52148    1.000
    Si3854   Si       0.66311    0.63812    0.54972    1.000
    N3855    N        0.68782    0.61803    0.60938    1.000
    N3856    N        0.63335    0.61297    0.56709    1.000
    Si3857   Si       0.64295    0.61054    0.61141    1.000
    N3858    N        0.73807    0.60564    0.56727    1.000
    N3859    N        0.61770    0.64399    0.62473    1.000
    Si3860   Si       0.72981    0.64655    0.73932    1.000
    Si3861   Si       0.68864    0.61073    0.69276    1.000
    Si3862   Si       0.57594    0.62920    0.62768    1.000
    N3863    N        0.56186    0.64215    0.66651    1.000
    Si3864   Si       0.53014    0.62427    0.68997    1.000
    N3865    N        0.50627    0.60509    0.65738    1.000
    N3866    N        0.50071    0.65218    0.70899    1.000
    Si3867   Si       0.70513    0.64875    0.63471    1.000
    N3868    N        0.69138    0.62783    0.73169    1.000
    N3869    N        0.72099    0.62650    0.66959    1.000
    N3870    N        0.52896    0.62198    0.83316    1.000
    N3871    N        0.56989    0.63049    0.77566    1.000
    Si3872   Si       0.57422    0.62344    0.81911    1.000
    N3873    N        0.59927    0.63429    0.85176    1.000
    Si3874   Si       0.50345    0.65197    0.81331    1.000
    N3875    N        0.71970    0.61780    0.83972    1.000
    N3876    N        0.66382    0.62776    0.80156    1.000
    Si3877   Si       0.68624    0.64479    0.83444    1.000
    Si3878   Si       0.65472    0.62872    0.75737    1.000
    Si3879   Si       0.63233    0.61216    0.86857    1.000
    N3880    N        0.66376    0.64213    0.87106    1.000
    N3881    N        0.73192    0.65022    0.78194    1.000
    Si3882   Si       0.52311    0.62959    0.87729    1.000
    Si3883   Si       0.59397    0.61027    0.98026    1.000
    N3884    N        0.57012    0.62014    0.94395    1.000
    N3885    N        0.51408    0.65496    0.95615    1.000
    Si3886   Si       0.49678    0.64901    0.99479    1.000
    N3887    N        0.72018    0.61491    0.91546    1.000
    N3888    N        0.62381    0.64059    0.99025    1.000
    Si3889   Si       0.67607    0.61017    0.92290    1.000
    N3890    N        0.66803    0.65203    0.93898    1.000
    N3891    N        0.72920    0.61809    0.99261    1.000
    N3892    N        0.55158    0.68322    0.09772    1.000
    Si3893   Si       0.59046    0.68999    0.08006    1.000
    Si3894   Si       0.51662    0.70797    0.10246    1.000
    N3895    N        0.59154    0.66218    0.04502    1.000
    N3896    N        0.49075    0.69680    0.06928    1.000
    Si3897   Si       0.49282    0.65359    0.06979    1.000
    N3898    N        0.72500    0.68698    0.01667    1.000
    N3899    N        0.65903    0.68869    0.03187    1.000
    Si3900   Si       0.70127    0.69016    0.05036    1.000
    Si3901   Si       0.69107    0.71158    0.12098    1.000
    N3902    N        0.60784    0.67902    0.12158    1.000
    N3903    N        0.50192    0.70607    0.14179    1.000
    N3904    N        0.56831    0.70234    0.17188    1.000
    Si3905   Si       0.56026    0.68737    0.21156    1.000
    Si3906   Si       0.56815    0.67630    0.13789    1.000
    N3907    N        0.51753    0.68309    0.21689    1.000
    Si3908   Si       0.67299    0.66597    0.20302    1.000
    N3909    N        0.67514    0.66729    0.24686    1.000
    N3910    N        0.64102    0.69150    0.19206    1.000
    N3911    N        0.67296    0.67276    0.12796    1.000
    Si3912   Si       0.72947    0.69994    0.23205    1.000
    Si3913   Si       0.63929    0.69215    0.14687    1.000
    N3914    N        0.71900    0.67088    0.19784    1.000
    N3915    N        0.58064    0.71723    0.23672    1.000
    N3916    N        0.57772    0.69346    0.32926    1.000
    Si3917   Si       0.55080    0.65964    0.32852    1.000
    N3918    N        0.50736    0.65684    0.34112    1.000
    Si3919   Si       0.62082    0.70025    0.33046    1.000
    N3920    N        0.64605    0.68852    0.29776    1.000
    N3921    N        0.63084    0.67919    0.36734    1.000
    Si3922   Si       0.66922    0.70589    0.26598    1.000
    Si3923   Si       0.56233    0.66015    0.42996    1.000
    N3924    N        0.54119    0.68507    0.40017    1.000
    Si3925   Si       0.50555    0.66898    0.38367    1.000
    N3926    N        0.54705    0.67163    0.47186    1.000
    N3927    N        0.60379    0.66986    0.43436    1.000
    Si3928   Si       0.60636    0.70971    0.45161    1.000
    Si3929   Si       0.65390    0.69587    0.39930    1.000
    N3930    N        0.70546    0.66973    0.48486    1.000
    N3931    N        0.67507    0.66387    0.42267    1.000
    Si3932   Si       0.71327    0.67693    0.44359    1.000
    Si3933   Si       0.73937    0.66617    0.35041    1.000
    N3934    N        0.48605    0.67635    0.27941    1.000
    N3935    N        0.60000    0.71234    0.49585    1.000
    N3936    N        0.58436    0.67922    0.54426    1.000
    Si3937   Si       0.55857    0.69045    0.50946    1.000
    Si3938   Si       0.49528    0.67858    0.55087    1.000
    N3939    N        0.50730    0.70527    0.58370    1.000
    N3940    N        0.52814    0.66225    0.53132    1.000
    Si3941   Si       0.52830    0.68571    0.61656    1.000
    N3942    N        0.73747    0.66183    0.60952    1.000
    Si3943   Si       0.73498    0.69373    0.51090    1.000
    Si3944   Si       0.61997    0.69523    0.53159    1.000
    N3945    N        0.68816    0.66876    0.56624    1.000
    Si3946   Si       0.68423    0.71238    0.56404    1.000
    N3947    N        0.62674    0.65860    0.74956    1.000
    Si3948   Si       0.52461    0.68195    0.74137    1.000
    N3949    N        0.56279    0.67831    0.71984    1.000
    Si3950   Si       0.57458    0.68450    0.67801    1.000
    N3951    N        0.55374    0.70772    0.64368    1.000
    Si3952   Si       0.64022    0.66342    0.65663    1.000
    N3953    N        0.73622    0.68326    0.71575    1.000
    N3954    N        0.67862    0.68265    0.64601    1.000
    N3955    N        0.61779    0.69277    0.67918    1.000
    N3956    N        0.64298    0.66180    0.51863    1.000
    N3957    N        0.52201    0.69080    0.82799    1.000
    N3958    N        0.56900    0.69932    0.77806    1.000
    Si3959   Si       0.58542    0.66589    0.75614    1.000
    N3960    N        0.58907    0.70766    0.84955    1.000
    Si3961   Si       0.55775    0.71584    0.81611    1.000
    N3962    N        0.50442    0.65745    0.77066    1.000
    N3963    N        0.70645    0.68657    0.83562    1.000
    Si3964   Si       0.72545    0.69143    0.79508    1.000
    N3965    N        0.69622    0.70860    0.76714    1.000
    Si3966   Si       0.73817    0.69000    0.86744    1.000
    Si3967   Si       0.59005    0.67195    0.87583    1.000
    N3968    N        0.55748    0.70565    0.94398    1.000
    Si3969   Si       0.55473    0.66160    0.93814    1.000
    N3970    N        0.54969    0.65979    0.89324    1.000
    N3971    N        0.65237    0.71434    0.88165    1.000
    N3972    N        0.70722    0.68624    0.89946    1.000
    N3973    N        0.61185    0.66975    0.91238    1.000
    Si3974   Si       0.73529    0.65651    0.92057    1.000
    Si3975   Si       0.72876    0.70982    0.98042    1.000
    Si3976   Si       0.66232    0.67556    0.89987    1.000
    Si3977   Si       0.63187    0.66769    0.95459    1.000
    N3978    N        0.62661    0.70679    0.97081    1.000
    N3979    N        0.53516    0.74679    0.09798    1.000
    N3980    N        0.50499    0.74933    0.01362    1.000
    N3981    N        0.59650    0.72937    0.06836    1.000
    Si3982   Si       0.60191    0.75572    0.03167    1.000
    Si3983   Si       0.57578    0.76262    0.09219    1.000
    Si3984   Si       0.61907    0.72346    0.21776    1.000
    Si3985   Si       0.69438    0.76589    0.07864    1.000
    N3986    N        0.64327    0.75788    0.01905    1.000
    N3987    N        0.70119    0.72193    0.07987    1.000
    Si3988   Si       0.65537    0.72181    0.99916    1.000
    N3989    N        0.59602    0.75887    0.13064    1.000
    Si3990   Si       0.51143    0.77034    0.22652    1.000
    Si3991   Si       0.57538    0.74585    0.16589    1.000
    Si3992   Si       0.49939    0.74552    0.15955    1.000
    N3993    N        0.53771    0.76508    0.17195    1.000
    N3994    N        0.64555    0.73711    0.24826    1.000
    N3995    N        0.60609    0.75656    0.19418    1.000
    N3996    N        0.72305    0.72361    0.14583    1.000
    N3997    N        0.65552    0.73103    0.13718    1.000
    Si3998   Si       0.63853    0.76944    0.13003    1.000
    Si3999   Si       0.55961    0.73157    0.33079    1.000
    N4000    N        0.57060    0.75839    0.29957    1.000
    Si4001   Si       0.55620    0.74638    0.26046    1.000
    N4002    N        0.51274    0.73677    0.25492    1.000
    N4003    N        0.51836    0.72044    0.31888    1.000
    Si4004   Si       0.49386    0.74399    0.29308    1.000
    N4005    N        0.56025    0.75204    0.36957    1.000
    Si4006   Si       0.72689    0.73586    0.29821    1.000
    N4007    N        0.62867    0.74275    0.33604    1.000
    Si4008   Si       0.66815    0.75201    0.35206    1.000
    N4009    N        0.69431    0.75519    0.32003    1.000
    N4010    N        0.70862    0.72331    0.26061    1.000
    N4011    N        0.50904    0.74719    0.41509    1.000
    Si4012   Si       0.54795    0.72860    0.40501    1.000
    N4013    N        0.57594    0.73548    0.43676    1.000
    N4014    N        0.64344    0.72199    0.43239    1.000
    N4015    N        0.67953    0.72693    0.38384    1.000
    Si4016   Si       0.68061    0.74261    0.42480    1.000
    N4017    N        0.71570    0.71992    0.43873    1.000
    N4018    N        0.73960    0.76689    0.49115    1.000
    Si4019   Si       0.50000    0.77439    0.44742    1.000
    Si4020   Si       0.57932    0.74949    0.50922    1.000
    Si4021   Si       0.49594    0.73598    0.51261    1.000
    N4022    N        0.54026    0.73114    0.50980    1.000
    Si4023   Si       0.49976    0.74974    0.58917    1.000
    N4024    N        0.60667    0.75009    0.61585    1.000
    N4025    N        0.59275    0.76555    0.54774    1.000
    N4026    N        0.54328    0.75973    0.59104    1.000
    N4027    N        0.48926    0.75931    0.54736    1.000
    N4028    N        0.74152    0.74752    0.73027    1.000
    N4029    N        0.69806    0.73396    0.59790    1.000
    Si4030   Si       0.62394    0.75624    0.57592    1.000
    Si4031   Si       0.70750    0.76471    0.52029    1.000
    N4032    N        0.70741    0.72346    0.52939    1.000
    N4033    N        0.64158    0.72121    0.55891    1.000
    Si4034   Si       0.56398    0.74722    0.62762    1.000
    N4035    N        0.56269    0.75759    0.73485    1.000
    Si4036   Si       0.51961    0.76153    0.73499    1.000
    N4037    N        0.49848    0.77098    0.69637    1.000
    N4038    N        0.61228    0.75828    0.69107    1.000
    N4039    N        0.50467    0.71974    0.74193    1.000
    N4040    N        0.73287    0.72068    0.65850    1.000
    Si4041   Si       0.69444    0.72080    0.63977    1.000
    N4042    N        0.67721    0.73355    0.70541    1.000
    Si4043   Si       0.71157    0.71719    0.72594    1.000
    N4044    N        0.66737    0.75879    0.64423    1.000
    Si4045   Si       0.63461    0.72277    0.70676    1.000
    Si4046   Si       0.62553    0.76868    0.64984    1.000
    N4047    N        0.49194    0.77316    0.62527    1.000
    Si4048   Si       0.58775    0.73775    0.76462    1.000
    N4049    N        0.52760    0.75122    0.81558    1.000
    N4050    N        0.59318    0.75782    0.80407    1.000
    Si4051   Si       0.49507    0.72439    0.82866    1.000
    N4052    N        0.61705    0.77209    0.86933    1.000
    Si4053   Si       0.61642    0.74055    0.83780    1.000
    N4054    N        0.70531    0.75576    0.86014    1.000
    N4055    N        0.65392    0.73041    0.81816    1.000
    Si4056   Si       0.66257    0.73716    0.77508    1.000
    Si4057   Si       0.68167    0.71969    0.84965    1.000
    N4058    N        0.62790    0.72949    0.75084    1.000
    N4059    N        0.54326    0.75839    0.89079    1.000
    N4060    N        0.60255    0.75357    0.92677    1.000
    Si4061   Si       0.59046    0.72808    0.96085    1.000
    Si4062   Si       0.52853    0.73535    0.92572    1.000
    N4063    N        0.52581    0.76839    0.95306    1.000
    Si4064   Si       0.53882    0.76752    0.99344    1.000
    N4065    N        0.66908    0.77385    0.91661    1.000
    Si4066   Si       0.63791    0.74918    0.90185    1.000
    Si4067   Si       0.68895    0.77166    0.95462    1.000
    N4068    N        0.69086    0.73241    0.97616    1.000
    N4069    N        0.74017    0.76403    0.79680    1.000
    N4070    N        0.57860    0.74843    0.99619    1.000
    N4071    N        0.50594    0.80203    0.06797    1.000
    Si4072   Si       0.54437    0.81211    0.04685    1.000
    Si4073   Si       0.51402    0.78465    0.10530    1.000
    N4074    N        0.57832    0.78608    0.05583    1.000
    N4075    N        0.53848    0.80874    0.00511    1.000
    N4076    N        0.54838    0.80734    0.11930    1.000
    Si4077   Si       0.66959    0.79419    0.02042    1.000
    N4078    N        0.70789    0.78988    0.04465    1.000
    N4079    N        0.72492    0.78652    0.10613    1.000
    N4080    N        0.65481    0.78078    0.09017    1.000
    Si4081   Si       0.64638    0.82281    0.08179    1.000
    N4082    N        0.65036    0.82783    0.03974    1.000
    N4083    N        0.48713    0.80479    0.23449    1.000
    Si4084   Si       0.54428    0.80794    0.16251    1.000
    N4085    N        0.58010    0.82473    0.18326    1.000
    N4086    N        0.54917    0.78626    0.24177    1.000
    N4087    N        0.50749    0.82944    0.16661    1.000
    N4088    N        0.63879    0.80776    0.22647    1.000
    N4089    N        0.70654    0.83034    0.21306    1.000
    Si4090   Si       0.61485    0.79948    0.18993    1.000
    N4091    N        0.63802    0.80552    0.15371    1.000
    N4092    N        0.59199    0.80817    0.34472    1.000
    Si4093   Si       0.60623    0.77605    0.31844    1.000
    Si4094   Si       0.54611    0.82805    0.25467    1.000
    N4095    N        0.63520    0.79711    0.29226    1.000
    N4096    N        0.69162    0.79331    0.26986    1.000
    Si4097   Si       0.67893    0.79722    0.31250    1.000
    Si4098   Si       0.65408    0.77795    0.25502    1.000
    N4099    N        0.66641    0.79562    0.35720    1.000
    Si4100   Si       0.72279    0.81260    0.24899    1.000
    Si4101   Si       0.57009    0.79341    0.37846    1.000
    N4102    N        0.53465    0.81836    0.38244    1.000
    N4103    N        0.59743    0.77938    0.48400    1.000
    N4104    N        0.53628    0.79614    0.45397    1.000
    N4105    N        0.59260    0.80127    0.41445    1.000
    Si4106   Si       0.57657    0.77821    0.44713    1.000
    Si4107   Si       0.61149    0.81965    0.49308    1.000
    N4108    N        0.68709    0.78162    0.43469    1.000
    Si4109   Si       0.72511    0.80443    0.42360    1.000
    N4110    N        0.71516    0.82652    0.46026    1.000
    Si4111   Si       0.67778    0.80674    0.46851    1.000
    N4112    N        0.63977    0.82511    0.46079    1.000
    Si4113   Si       0.56387    0.79073    0.56760    1.000
    N4114    N        0.54811    0.82410    0.54394    1.000
    N4115    N        0.58428    0.81401    0.59759    1.000
    Si4116   Si       0.66317    0.81347    0.54499    1.000
    N4117    N        0.67532    0.79119    0.50923    1.000
    N4118    N        0.65842    0.78534    0.57763    1.000
    Si4119   Si       0.72692    0.82180    0.57663    1.000
    N4120    N        0.73128    0.78674    0.55098    1.000
    N4121    N        0.70604    0.81648    0.61530    1.000
    Si4122   Si       0.68626    0.77664    0.60895    1.000
    N4123    N        0.56016    0.81845    0.71098    1.000
    Si4124   Si       0.51177    0.78986    0.66059    1.000
    Si4125   Si       0.57537    0.77911    0.69896    1.000
    N4126    N        0.55465    0.77729    0.65891    1.000
    N4127    N        0.62721    0.81184    0.65094    1.000
    N4128    N        0.66221    0.80536    0.70864    1.000
    N4129    N        0.71897    0.79021    0.67664    1.000
    Si4130   Si       0.73135    0.82683    0.65772    1.000
    Si4131   Si       0.67978    0.77224    0.68494    1.000
    N4132    N        0.73448    0.81368    0.74313    1.000
    Si4133   Si       0.59393    0.80039    0.79677    1.000
    N4134    N        0.55356    0.81410    0.79506    1.000
    N4135    N        0.50887    0.80708    0.84435    1.000
    Si4136   Si       0.51669    0.79281    0.80392    1.000
    N4137    N        0.50048    0.78586    0.76314    1.000
    N4138    N        0.61002    0.81157    0.75673    1.000
    N4139    N        0.61164    0.82433    0.82653    1.000
    Si4140   Si       0.71542    0.79536    0.78008    1.000
    N4141    N        0.67332    0.77961    0.77194    1.000
    Si4142   Si       0.65309    0.81071    0.75020    1.000
    Si4143   Si       0.62157    0.81842    0.86754    1.000
    N4144    N        0.48650    0.80251    0.90257    1.000
    N4145    N        0.72580    0.77862    0.93526    1.000
    Si4146   Si       0.58062    0.77745    0.89904    1.000
    N4147    N        0.58790    0.81973    0.89589    1.000
    Si4148   Si       0.50789    0.77677    0.87371    1.000
    Si4149   Si       0.70637    0.78175    0.89613    1.000
    N4150    N        0.68258    0.80440    0.98190    1.000
    N4151    N        0.71802    0.81910    0.87889    1.000
    N4152    N        0.55276    0.85086    0.06294    1.000
    Si4153   Si       0.52651    0.87983    0.04416    1.000
    Si4154   Si       0.57015    0.84234    0.10338    1.000
    N4155    N        0.53378    0.88004    0.00219    1.000
    N4156    N        0.60636    0.87483    0.00714    1.000
    N4157    N        0.61296    0.84736    0.09942    1.000
    Si4158   Si       0.64335    0.86952    0.02377    1.000
    N4159    N        0.67576    0.83878    0.10807    1.000
    Si4160   Si       0.62618    0.88891    0.09263    1.000
    N4161    N        0.55253    0.87314    0.12786    1.000
    Si4162   Si       0.51632    0.87182    0.15286    1.000
    Si4163   Si       0.57654    0.86057    0.20881    1.000
    N4164    N        0.53487    0.85658    0.22330    1.000
    Si4165   Si       0.66565    0.84195    0.21838    1.000
    N4166    N        0.72744    0.85029    0.15354    1.000
    N4167    N        0.65129    0.86536    0.18421    1.000
    Si4168   Si       0.64711    0.84789    0.14117    1.000
    Si4169   Si       0.71647    0.83068    0.11593    1.000
    N4170    N        0.58517    0.88034    0.36255    1.000
    N4171    N        0.51680    0.83974    0.28587    1.000
    Si4172   Si       0.58744    0.88310    0.28136    1.000
    Si4173   Si       0.50767    0.88302    0.29500    1.000
    N4174    N        0.58968    0.84941    0.25046    1.000
    Si4175   Si       0.60928    0.84681    0.34620    1.000
    N4176    N        0.51915    0.88798    0.36461    1.000
    N4177    N        0.55093    0.89145    0.30152    1.000
    N4178    N        0.61584    0.86211    0.30610    1.000
    N4179    N        0.68928    0.84008    0.32125    1.000
    N4180    N        0.66142    0.85827    0.25789    1.000
    Si4181   Si       0.68671    0.87086    0.29207    1.000
    N4182    N        0.72303    0.88735    0.27459    1.000
    Si4183   Si       0.62549    0.83542    0.27082    1.000
    Si4184   Si       0.67727    0.83658    0.36539    1.000
    Si4185   Si       0.54003    0.83995    0.45871    1.000
    N4186    N        0.57686    0.84637    0.48012    1.000
    Si4187   Si       0.51550    0.85371    0.39166    1.000
    N4188    N        0.52760    0.87079    0.43071    1.000
    N4189    N        0.60581    0.87384    0.43008    1.000
    N4190    N        0.51566    0.85509    0.49261    1.000
    Si4191   Si       0.59634    0.88900    0.47076    1.000
    Si4192   Si       0.72342    0.87647    0.39751    1.000
    N4193    N        0.71198    0.83478    0.39358    1.000
    N4194    N        0.63810    0.84963    0.38034    1.000
    Si4195   Si       0.62162    0.83262    0.42171    1.000
    N4196    N        0.72749    0.88786    0.43801    1.000
    Si4197   Si       0.61634    0.88958    0.39097    1.000
    N4198    N        0.52897    0.85471    0.60574    1.000
    Si4199   Si       0.55307    0.85956    0.51847    1.000
    Si4200   Si       0.51445    0.84259    0.56739    1.000
    Si4201   Si       0.56048    0.88424    0.61412    1.000
    N4202    N        0.52791    0.88465    0.54675    1.000
    Si4203   Si       0.61913    0.86628    0.56197    1.000
    N4204    N        0.69416    0.84254    0.55582    1.000
    N4205    N        0.64033    0.85346    0.59845    1.000
    N4206    N        0.70370    0.88487    0.60497    1.000
    Si4207   Si       0.67849    0.85360    0.61832    1.000
    N4208    N        0.62564    0.83394    0.53233    1.000
    Si4209   Si       0.68769    0.88715    0.56186    1.000
    Si4210   Si       0.64293    0.83600    0.68374    1.000
    Si4211   Si       0.60841    0.83792    0.62257    1.000
    Si4212   Si       0.50214    0.87426    0.63813    1.000
    Si4213   Si       0.52489    0.84118    0.70286    1.000
    N4214    N        0.58987    0.86951    0.64454    1.000
    N4215    N        0.54682    0.87926    0.69679    1.000
    Si4216   Si       0.58600    0.84195    0.73634    1.000
    Si4217   Si       0.58808    0.88529    0.68382    1.000
    N4218    N        0.50448    0.83399    0.66475    1.000
    N4219    N        0.67292    0.86081    0.66301    1.000
    N4220    N        0.73037    0.85625    0.69260    1.000
    Si4221   Si       0.64541    0.88211    0.73659    1.000
    N4222    N        0.61709    0.86093    0.71006    1.000
    Si4223   Si       0.70131    0.88771    0.68123    1.000
    N4224    N        0.56681    0.87086    0.76525    1.000
    Si4225   Si       0.54040    0.85512    0.79525    1.000
    N4226    N        0.53583    0.88149    0.82764    1.000
    N4227    N        0.49536    0.84656    0.78795    1.000
    Si4228   Si       0.69311    0.85466    0.89124    1.000
    Si4229   Si       0.69755    0.86267    0.78584    1.000
    N4230    N        0.66851    0.85071    0.75693    1.000
    N4231    N        0.73111    0.88225    0.76288    1.000
    N4232    N        0.71171    0.88831    0.86917    1.000
    Si4233   Si       0.49312    0.83773    0.87510    1.000
    N4234    N        0.56131    0.85726    0.95278    1.000
    Si4235   Si       0.56733    0.85269    0.91161    1.000
    N4236    N        0.52737    0.85716    0.89040    1.000
    Si4237   Si       0.52925    0.84190    0.97893    1.000
    N4238    N        0.49045    0.83468    0.96134    1.000
    N4239    N        0.57946    0.88917    0.89044    1.000
    N4240    N        0.65404    0.84492    0.87650    1.000
    Si4241   Si       0.69929    0.84434    0.97523    1.000
    N4242    N        0.67259    0.87544    0.99197    1.000
    N4243    N        0.69103    0.86046    0.93380    1.000
    N4244    N        0.71890    0.83015    0.80724    1.000
    N4245    N        0.53125    0.91509    0.07058    1.000
    N4246    N        0.59548    0.91807    0.08486    1.000
    Si4247   Si       0.55710    0.91078    0.10516    1.000
    Si4248   Si       0.73771    0.89023    0.16219    1.000
    Si4249   Si       0.67113    0.93247    0.05641    1.000
    N4250    N        0.70596    0.93796    0.02713    1.000
    Si4251   Si       0.72685    0.94057    0.10663    1.000
    N4252    N        0.65177    0.89449    0.05833    1.000
    N4253    N        0.51920    0.90491    0.18458    1.000
    Si4254   Si       0.55786    0.92650    0.17848    1.000
    N4255    N        0.55359    0.93900    0.13783    1.000
    N4256    N        0.59110    0.89926    0.19177    1.000
    N4257    N        0.64911    0.94199    0.17013    1.000
    N4258    N        0.71278    0.91893    0.14201    1.000
    Si4259   Si       0.67118    0.92900    0.13538    1.000
    Si4260   Si       0.50124    0.88414    0.21877    1.000
    Si4261   Si       0.63097    0.90344    0.17450    1.000
    N4262    N        0.64208    0.89524    0.13029    1.000
    Si4263   Si       0.55426    0.90194    0.34363    1.000
    N4264    N        0.56113    0.94242    0.34476    1.000
    N4265    N        0.60693    0.91942    0.26495    1.000
    N4266    N        0.49484    0.90266    0.25733    1.000
    N4267    N        0.49904    0.93448    0.31283    1.000
    N4268    N        0.68247    0.93823    0.43380    1.000
    N4269    N        0.67241    0.90916    0.31002    1.000
    Si4270   Si       0.70357    0.92121    0.33889    1.000
    Si4271   Si       0.64678    0.92715    0.27874    1.000
    N4272    N        0.68195    0.93659    0.24894    1.000
    N4273    N        0.56715    0.91935    0.45765    1.000
    Si4274   Si       0.52562    0.90987    0.45090    1.000
    N4275    N        0.50520    0.92261    0.48838    1.000
    N4276    N        0.50746    0.94278    0.43052    1.000
    N4277    N        0.69627    0.90125    0.37624    1.000
    Si4278   Si       0.67076    0.93573    0.39184    1.000
    Si4279   Si       0.65463    0.94602    0.46636    1.000
    N4280    N        0.62555    0.93218    0.38365    1.000
    Si4281   Si       0.72496    0.93103    0.44484    1.000
    N4282    N        0.73439    0.93364    0.48643    1.000
    N4283    N        0.63336    0.91124    0.48140    1.000
    Si4284   Si       0.72303    0.92112    0.24202    1.000
    Si4285   Si       0.56105    0.91055    0.55023    1.000
    Si4286   Si       0.49585    0.90728    0.52774    1.000
    N4287    N        0.58666    0.89382    0.51971    1.000
    N4288    N        0.58591    0.88966    0.58075    1.000
    Si4289   Si       0.62271    0.91852    0.52215    1.000
    N4290    N        0.71379    0.91866    0.54660    1.000
    N4291    N        0.64851    0.89944    0.55118    1.000
    Si4292   Si       0.73509    0.91518    0.61701    1.000
    N4293    N        0.53165    0.91097    0.63281    1.000
    N4294    N        0.60636    0.92322    0.68401    1.000
    N4295    N        0.56365    0.94276    0.73888    1.000
    Si4296   Si       0.68880    0.94172    0.72760    1.000
    N4297    N        0.72643    0.91708    0.66120    1.000
    N4298    N        0.67619    0.90315    0.71464    1.000
    N4299    N        0.73198    0.94088    0.72385    1.000
    N4300    N        0.49047    0.93993    0.73405    1.000
    Si4301   Si       0.52377    0.92716    0.81744    1.000
    Si4302   Si       0.57998    0.91233    0.76457    1.000
    N4303    N        0.56477    0.93460    0.80323    1.000
    N4304    N        0.52412    0.93223    0.86386    1.000
    N4305    N        0.62264    0.90727    0.76213    1.000
    Si4306   Si       0.65039    0.92745    0.78869    1.000
    Si4307   Si       0.67940    0.90670    0.84686    1.000
    N4308    N        0.67452    0.89392    0.80616    1.000
    N4309    N        0.57544    0.93061    0.97684    1.000
    Si4310   Si       0.61206    0.94573    0.95609    1.000
    Si4311   Si       0.57265    0.88648    0.98333    1.000
    Si4312   Si       0.66969    0.89496    0.95392    1.000
    N4313    N        0.69937    0.92570    0.95349    1.000
    Si4314   Si       0.61471    0.91377    0.90055    1.000
    N4315    N        0.64625    0.92015    0.87259    1.000
    Si4316   Si       0.73681    0.93369    0.93197    1.000
    N4317    N        0.63116    0.90997    0.93937    1.000
    N4318    N        0.64662    0.94724    0.99052    1.000
    N4319    N        0.67975    0.95003    0.76865    1.000
    Si4320   Si       0.54132    0.89163    0.86858    1.000
    N4321    N        0.51335    0.97309    0.09350    1.000
    N4322    N        0.58306    0.98489    0.09734    1.000
    N4323    N        0.52227    0.96753    0.02305    1.000
    N4324    N        0.58578    0.97025    0.02830    1.000
    Si4325   Si       0.59905    0.95797    0.06838    1.000
    Si4326   Si       0.49174    0.99791    0.01385    1.000
    N4327    N        0.64095    0.96519    0.05681    1.000
    Si4328   Si       0.66609    0.99008    0.08153    1.000
    Si4329   Si       0.62473    0.97950    0.01183    1.000
    N4330    N        0.68274    0.94847    0.09702    1.000
    Si4331   Si       0.54771    0.97763    0.12141    1.000
    N4332    N        0.53245    0.00101    0.15453    1.000
    Si4333   Si       0.56465    0.99968    0.18447    1.000
    N4334    N        0.56242    0.96009    0.20546    1.000
    N4335    N        0.60051    0.99571    0.16158    1.000
    Si4336   Si       0.59130    0.95723    0.23907    1.000
    N4337    N        0.69186    0.00356    0.24606    1.000
    N4338    N        0.62750    0.97419    0.22336    1.000
    Si4339   Si       0.63613    0.98320    0.18227    1.000
    Si4340   Si       0.50674    0.95010    0.05881    1.000
    N4341    N        0.57115    0.97794    0.27077    1.000
    Si4342   Si       0.52274    0.96289    0.33611    1.000
    Si4343   Si       0.60212    0.99455    0.30187    1.000
    Si4344   Si       0.52959    0.98894    0.26695    1.000
    N4345    N        0.60369    0.99394    0.34679    1.000
    N4346    N        0.52904    0.99755    0.31128    1.000
    N4347    N        0.64011    0.97165    0.28838    1.000
    Si4348   Si       0.71309    0.99156    0.34981    1.000
    N4349    N        0.72274    0.98775    0.30705    1.000
    N4350    N        0.68537    0.95939    0.36010    1.000
    Si4351   Si       0.66164    0.97601    0.25156    1.000
    Si4352   Si       0.59281    0.96140    0.37262    1.000
    N4353    N        0.50744    0.97443    0.37521    1.000
    Si4354   Si       0.52953    0.97789    0.41217    1.000
    N4355    N        0.57155    0.97122    0.40992    1.000
    N4356    N        0.56203    0.98288    0.47987    1.000
    Si4357   Si       0.58300    0.95943    0.44945    1.000
    N4358    N        0.70295    0.99935    0.42240    1.000
    N4359    N        0.73679    0.99463    0.47200    1.000
    N4360    N        0.67264    0.97296    0.49285    1.000
    N4361    N        0.62450    0.97327    0.45072    1.000
    Si4362   Si       0.69339    0.00223    0.46706    1.000
    N4363    N        0.49160    0.97391    0.25496    1.000
    Si4364   Si       0.57386    0.97865    0.52104    1.000
    N4365    N        0.51392    0.97947    0.60530    1.000
    Si4366   Si       0.51290    0.96935    0.56399    1.000
    N4367    N        0.54998    0.95194    0.54607    1.000
    N4368    N        0.50975    0.00721    0.53941    1.000
    N4369    N        0.61332    0.96084    0.52628    1.000
    Si4370   Si       0.65061    0.98703    0.52769    1.000
    N4371    N        0.66862    0.97446    0.56435    1.000
    Si4372   Si       0.65349    0.98870    0.60291    1.000
    Si4373   Si       0.70898    0.96047    0.56082    1.000
    N4374    N        0.72588    0.95595    0.59990    1.000
    N4375    N        0.73418    0.98863    0.54028    1.000
    N4376    N        0.57370    0.97212    0.63907    1.000
    N4377    N        0.51047    0.96346    0.67523    1.000
    N4378    N        0.53769    0.99806    0.72728    1.000
    Si4379   Si       0.57779    0.98471    0.73518    1.000
    N4380    N        0.60725    0.99063    0.70415    1.000
    Si4381   Si       0.53328    0.95361    0.63632    1.000
    Si4382   Si       0.51329    0.00398    0.69144    1.000
    Si4383   Si       0.60841    0.96263    0.66848    1.000
    N4384    N        0.64201    0.97374    0.64299    1.000
    N4385    N        0.72066    0.98514    0.66483    1.000
    Si4386   Si       0.67731    0.99393    0.66427    1.000
    N4387    N        0.67176    0.97468    0.70556    1.000
    Si4388   Si       0.72742    0.99236    0.62337    1.000
    Si4389   Si       0.74263    0.95324    0.68423    1.000
    Si4390   Si       0.58758    0.97182    0.81111    1.000
    N4391    N        0.57916    0.99299    0.84716    1.000
    N4392    N        0.59189    0.99695    0.77531    1.000
    N4393    N        0.50965    0.96380    0.78724    1.000
    Si4394   Si       0.52547    0.96022    0.74619    1.000
    Si4395   Si       0.64824    0.95761    0.85172    1.000
    Si4396   Si       0.70284    0.97089    0.80153    1.000
    N4397    N        0.62677    0.95181    0.81601    1.000
    N4398    N        0.68950    0.94933    0.83701    1.000
    Si4399   Si       0.69025    0.94893    0.98889    1.000
    N4400    N        0.53223    0.98665    0.96086    1.000
    Si4401   Si       0.50359    0.96686    0.88428    1.000
    N4402    N        0.53064    0.99964    0.89365    1.000
    Si4403   Si       0.59844    0.98833    0.88841    1.000
    Si4404   Si       0.55514    0.96640    0.99440    1.000
    Si4405   Si       0.49033    0.98915    0.94751    1.000
    N4406    N        0.59846    0.95397    0.91290    1.000
    Si4407   Si       0.73697    0.99808    0.96269    1.000
    N4408    N        0.60597    0.99107    0.96856    1.000
    N4409    N        0.64122    0.99182    0.87643    1.000
    N4410    N        0.70165    0.99173    0.98623    1.000
    N4411    N        0.73520    0.96280    0.89991    1.000
    N4412    N        0.75657    0.03880    0.07325    1.000
    N4413    N        0.81123    0.03632    0.03375    1.000
    Si4414   Si       0.83149    0.03153    0.07311    1.000
    N4415    N        0.82603    0.05789    0.10896    1.000
    N4416    N        0.87415    0.02873    0.06497    1.000
    N4417    N        0.96564    0.05257    0.07781    1.000
    Si4418   Si       0.89165    0.01814    0.10434    1.000
    N4419    N        0.93227    0.01074    0.03063    1.000
    Si4420   Si       0.95965    0.02715    0.00013    1.000
    Si4421   Si       0.89113    0.01356    0.02947    1.000
    Si4422   Si       0.95455    0.00941    0.06999    1.000
    N4423    N        0.78793    0.02256    0.14996    1.000
    Si4424   Si       0.83059    0.03168    0.14300    1.000
    N4425    N        0.85274    0.05712    0.17236    1.000
    Si4426   Si       0.76685    0.03682    0.21932    1.000
    Si4427   Si       0.74635    0.04557    0.15358    1.000
    N4428    N        0.85654    0.05415    0.24216    1.000
    Si4429   Si       0.96800    0.05190    0.23221    1.000
    N4430    N        0.97550    0.03329    0.19415    1.000
    N4431    N        0.90849    0.05493    0.12461    1.000
    Si4432   Si       0.89127    0.04177    0.21834    1.000
    N4433    N        0.96723    0.06879    0.01435    1.000
    N4434    N        0.76288    0.04499    0.32762    1.000
    Si4435   Si       0.84884    0.02430    0.35840    1.000
    Si4436   Si       0.78376    0.04239    0.28942    1.000
    N4437    N        0.75373    0.03299    0.26047    1.000
    N4438    N        0.82115    0.02084    0.28189    1.000
    Si4439   Si       0.84785    0.05927    0.28479    1.000
    N4440    N        0.85946    0.05297    0.32690    1.000
    Si4441   Si       0.77745    0.01006    0.35074    1.000
    Si4442   Si       0.93732    0.03651    0.28500    1.000
    Si4443   Si       0.95159    0.05509    0.34892    1.000
    N4444    N        0.98111    0.04304    0.27524    1.000
    N4445    N        0.92621    0.06377    0.31683    1.000
    N4446    N        0.92766    0.03725    0.24333    1.000
    Si4447   Si       0.89856    0.06728    0.39500    1.000
    N4448    N        0.80858    0.03083    0.37481    1.000
    N4449    N        0.79737    0.06156    0.48858    1.000
    N4450    N        0.77128    0.03102    0.43384    1.000
    Si4451   Si       0.76669    0.03032    0.47988    1.000
    Si4452   Si       0.79112    0.05574    0.40583    1.000
    N4453    N        0.85346    0.00730    0.46048    1.000
    Si4454   Si       0.97412    0.06648    0.42261    1.000
    Si4455   Si       0.94782    0.01474    0.39781    1.000
    N4456    N        0.87347    0.03403    0.39276    1.000
    Si4457   Si       0.94441    0.04999    0.49093    1.000
    N4458    N        0.98551    0.02460    0.41987    1.000
    N4459    N        0.94017    0.05978    0.39239    1.000
    N4460    N        0.78096    0.03754    0.55677    1.000
    N4461    N        0.84709    0.03640    0.52890    1.000
    Si4462   Si       0.80657    0.05833    0.53028    1.000
    Si4463   Si       0.79329    0.01305    0.59155    1.000
    Si4464   Si       0.73800    0.03109    0.54590    1.000
    N4465    N        0.75928    0.01905    0.61786    1.000
    Si4466   Si       0.88590    0.05473    0.53508    1.000
    N4467    N        0.91435    0.03451    0.55949    1.000
    Si4468   Si       0.93406    0.05250    0.59575    1.000
    N4469    N        0.97250    0.04836    0.52496    1.000
    N4470    N        0.97982    0.04663    0.60823    1.000
    N4471    N        0.90235    0.06083    0.49451    1.000
    N4472    N        0.82768    0.01566    0.61818    1.000
    Si4473   Si       0.84928    0.01863    0.65642    1.000
    Si4474   Si       0.76839    0.05469    0.64211    1.000
    N4475    N        0.78544    0.05076    0.68378    1.000
    N4476    N        0.85649    0.06086    0.65774    1.000
    N4477    N        0.77920    0.01038    0.73856    1.000
    Si4478   Si       0.92447    0.01991    0.71012    1.000
    N4479    N        0.95825    0.02108    0.73683    1.000
    N4480    N        0.91194    0.05742    0.69630    1.000
    Si4481   Si       0.97435    0.02268    0.64407    1.000
    N4482    N        0.73618    0.05007    0.50719    1.000
    N4483    N        0.93391    0.00951    0.61500    1.000
    N4484    N        0.82164    0.04034    0.85425    1.000
    N4485    N        0.78001    0.05461    0.79854    1.000
    Si4486   Si       0.80086    0.04302    0.75973    1.000
    Si4487   Si       0.79335    0.02382    0.82637    1.000
    N4488    N        0.84362    0.03075    0.75191    1.000
    Si4489   Si       0.95803    0.04427    0.85047    1.000
    N4490    N        0.94569    0.02210    0.81318    1.000
    Si4491   Si       0.95270    0.04312    0.77465    1.000
    Si4492   Si       0.87509    0.03868    0.77960    1.000
    N4493    N        0.91310    0.05484    0.76271    1.000
    Si4494   Si       0.85565    0.04482    0.95574    1.000
    N4495    N        0.82930    0.02577    0.92905    1.000
    N4496    N        0.76442    0.02470    0.98693    1.000
    Si4497   Si       0.83141    0.01154    0.88838    1.000
    N4498    N        0.88711    0.06194    0.93089    1.000
    Si4499   Si       0.89366    0.04537    0.89120    1.000
    Si4500   Si       0.96159    0.05699    0.92507    1.000
    N4501    N        0.95497    0.02675    0.95550    1.000
    N4502    N        0.87390    0.01965    0.98677    1.000
    N4503    N        0.93841    0.04160    0.89079    1.000
    N4504    N        0.87474    0.00852    0.88185    1.000
    N4505    N        0.77512    0.10476    0.09468    1.000
    N4506    N        0.77243    0.09164    0.02313    1.000
    Si4507   Si       0.75922    0.08064    0.06149    1.000
    N4508    N        0.83911    0.11084    0.02943    1.000
    Si4509   Si       0.81011    0.07563    0.01419    1.000
    Si4510   Si       0.81330    0.09822    0.11552    1.000
    Si4511   Si       0.74843    0.12004    0.99775    1.000
    N4512    N        0.84496    0.11954    0.09504    1.000
    N4513    N        0.92619    0.11348    0.09688    1.000
    Si4514   Si       0.94323    0.07328    0.10721    1.000
    N4515    N        0.97249    0.09301    0.22640    1.000
    N4516    N        0.81069    0.11171    0.15747    1.000
    Si4517   Si       0.77762    0.10423    0.18394    1.000
    N4518    N        0.79047    0.07292    0.20815    1.000
    N4519    N        0.74636    0.08922    0.15753    1.000
    N4520    N        0.84694    0.11916    0.21567    1.000
    Si4521   Si       0.83574    0.07658    0.20815    1.000
    N4522    N        0.97335    0.07887    0.13924    1.000
    Si4523   Si       0.93418    0.10891    0.20613    1.000
    Si4524   Si       0.88764    0.07750    0.15707    1.000
    Si4525   Si       0.97889    0.12058    0.14625    1.000
    N4526    N        0.90918    0.07603    0.19568    1.000
    N4527    N        0.87796    0.11927    0.14974    1.000
    N4528    N        0.75664    0.11406    0.31999    1.000
    Si4529   Si       0.80031    0.11557    0.31311    1.000
    N4530    N        0.80836    0.08023    0.29048    1.000
    Si4531   Si       0.74334    0.08165    0.34476    1.000
    N4532    N        0.81442    0.12501    0.35614    1.000
    N4533    N        0.87709    0.10127    0.28615    1.000
    Si4534   Si       0.88961    0.08462    0.32564    1.000
    N4535    N        0.88946    0.09831    0.36633    1.000
    Si4536   Si       0.95981    0.11692    0.47507    1.000
    N4537    N        0.84949    0.10210    0.48794    1.000
    Si4538   Si       0.81094    0.09649    0.46688    1.000
    N4539    N        0.81239    0.08938    0.42334    1.000
    N4540    N        0.76046    0.08634    0.38608    1.000
    Si4541   Si       0.79319    0.11495    0.39362    1.000
    Si4542   Si       0.88861    0.12549    0.40115    1.000
    Si4543   Si       0.88851    0.09398    0.47267    1.000
    N4544    N        0.89099    0.09275    0.42906    1.000
    N4545    N        0.95991    0.07569    0.46159    1.000
    N4546    N        0.81178    0.10029    0.54442    1.000
    Si4547   Si       0.80586    0.10785    0.58725    1.000
    N4548    N        0.84651    0.11302    0.60869    1.000
    Si4549   Si       0.84979    0.12079    0.52976    1.000
    Si4550   Si       0.88633    0.10720    0.59201    1.000
    N4551    N        0.87859    0.09592    0.55067    1.000
    N4552    N        0.94960    0.09293    0.57550    1.000
    Si4553   Si       0.98079    0.08777    0.54430    1.000
    N4554    N        0.90473    0.07510    0.61704    1.000
    Si4555   Si       0.95193    0.11638    0.61152    1.000
    N4556    N        0.98115    0.11954    0.51332    1.000
    N4557    N        0.79235    0.08190    0.62072    1.000
    Si4558   Si       0.83012    0.09184    0.64328    1.000
    N4559    N        0.82090    0.11022    0.68112    1.000
    Si4560   Si       0.78954    0.08953    0.70368    1.000
    N4561    N        0.75685    0.11658    0.69277    1.000
    N4562    N        0.80292    0.08862    0.74429    1.000
    Si4563   Si       0.85869    0.12260    0.69942    1.000
    Si4564   Si       0.91138    0.08338    0.73048    1.000
    N4565    N        0.88835    0.11703    0.67021    1.000
    N4566    N        0.94527    0.11205    0.72447    1.000
    Si4567   Si       0.89812    0.07537    0.65990    1.000
    N4568    N        0.87292    0.10010    0.73386    1.000
    N4569    N        0.95417    0.10015    0.65181    1.000
    Si4570   Si       0.95379    0.12789    0.68557    1.000
    N4571    N        0.82461    0.11421    0.84810    1.000
    Si4572   Si       0.84282    0.09621    0.76390    1.000
    N4573    N        0.75613    0.12129    0.79104    1.000
    Si4574   Si       0.84269    0.07602    0.84283    1.000
    N4575    N        0.85269    0.07255    0.79871    1.000
    Si4576   Si       0.74474    0.08147    0.79809    1.000
    N4577    N        0.94634    0.08537    0.84234    1.000
    Si4578   Si       0.91125    0.11092    0.85554    1.000
    Si4579   Si       0.97264    0.11380    0.75570    1.000
    Si4580   Si       0.96889    0.11983    0.82513    1.000
    N4581    N        0.98583    0.07287    0.77100    1.000
    N4582    N        0.88215    0.07536    0.86223    1.000
    N4583    N        0.75172    0.09818    0.96144    1.000
    N4584    N        0.77982    0.09842    0.89849    1.000
    N4585    N        0.83228    0.07699    0.97544    1.000
    Si4586   Si       0.84874    0.11834    0.98449    1.000
    Si4587   Si       0.74593    0.11143    0.92098    1.000
    Si4588   Si       0.81546    0.12131    0.88851    1.000
    Si4589   Si       0.88463    0.10602    0.92950    1.000
    Si4590   Si       0.96735    0.10053    0.98676    1.000
    N4591    N        0.88940    0.11979    0.97176    1.000
    N4592    N        0.91509    0.11711    0.89871    1.000
    N4593    N        0.95612    0.09412    0.94562    1.000
    Si4594   Si       0.78857    0.12729    0.76469    1.000
    N4595    N        0.84773    0.12554    0.91915    1.000
    Si4596   Si       0.84451    0.14183    0.05761    1.000
    Si4597   Si       0.76073    0.14589    0.10582    1.000
    N4598    N        0.81848    0.17426    0.04326    1.000
    N4599    N        0.79104    0.17682    0.10955    1.000
    N4600    N        0.76425    0.16072    0.00475    1.000
    Si4601   Si       0.80328    0.18116    0.00322    1.000
    N4602    N        0.88248    0.15841    0.06990    1.000
    Si4603   Si       0.95016    0.15177    0.09303    1.000
    N4604    N        0.94866    0.17409    0.05592    1.000
    Si4605   Si       0.96986    0.17626    0.01718    1.000
    Si4606   Si       0.88570    0.13293    0.10762    1.000
    N4607    N        0.95497    0.14085    0.99742    1.000
    Si4608   Si       0.91094    0.17832    0.23722    1.000
    Si4609   Si       0.90703    0.18288    0.04617    1.000
    Si4610   Si       0.84484    0.13414    0.17503    1.000
    Si4611   Si       0.78498    0.17796    0.20274    1.000
    N4612    N        0.76287    0.13746    0.20904    1.000
    N4613    N        0.82027    0.17178    0.17790    1.000
    N4614    N        0.74084    0.15755    0.14157    1.000
    N4615    N        0.92209    0.13472    0.23803    1.000
    N4616    N        0.92409    0.17311    0.12064    1.000
    Si4617   Si       0.93532    0.17720    0.16391    1.000
    N4618    N        0.94619    0.13348    0.17189    1.000
    N4619    N        0.81660    0.14047    0.28022    1.000
    N4620    N        0.75687    0.17602    0.29068    1.000
    Si4621   Si       0.80023    0.18000    0.28079    1.000
    Si4622   Si       0.84050    0.15853    0.36564    1.000
    Si4623   Si       0.85202    0.12942    0.25931    1.000
    N4624    N        0.87910    0.16502    0.27003    1.000
    Si4625   Si       0.95940    0.16118    0.33571    1.000
    N4626    N        0.87612    0.17526    0.34557    1.000
    N4627    N        0.92832    0.13571    0.31706    1.000
    Si4628   Si       0.98573    0.18207    0.26614    1.000
    Si4629   Si       0.90924    0.13189    0.28010    1.000
    N4630    N        0.97362    0.14547    0.44761    1.000
    Si4631   Si       0.75768    0.14094    0.45881    1.000
    N4632    N        0.85665    0.15337    0.40595    1.000
    N4633    N        0.77580    0.14802    0.41687    1.000
    N4634    N        0.79007    0.12980    0.48649    1.000
    N4635    N        0.98017    0.14419    0.37253    1.000
    N4636    N        0.86582    0.17918    0.47506    1.000
    N4637    N        0.92147    0.15396    0.40058    1.000
    Si4638   Si       0.96329    0.16155    0.40723    1.000
    N4639    N        0.91609    0.12649    0.48203    1.000
    Si4640   Si       0.90634    0.16559    0.49537    1.000
    N4641    N        0.82854    0.16066    0.52985    1.000
    N4642    N        0.75783    0.17125    0.52496    1.000
    Si4643   Si       0.78983    0.13883    0.53206    1.000
    N4644    N        0.77771    0.13868    0.57689    1.000
    Si4645   Si       0.74125    0.15182    0.59680    1.000
    N4646    N        0.91153    0.14018    0.60768    1.000
    N4647    N        0.90549    0.16606    0.53730    1.000
    Si4648   Si       0.91381    0.17345    0.57707    1.000
    N4649    N        0.98710    0.14373    0.60829    1.000
    N4650    N        0.86514    0.17930    0.64934    1.000
    N4651    N        0.78112    0.16069    0.73963    1.000
    N4652    N        0.79949    0.17681    0.67564    1.000
    N4653    N        0.74919    0.17013    0.63386    1.000
    Si4654   Si       0.76880    0.16002    0.70066    1.000
    N4655    N        0.85603    0.16081    0.71563    1.000
    N4656    N        0.93744    0.16543    0.67067    1.000
    Si4657   Si       0.90009    0.15358    0.64842    1.000
    Si4658   Si       0.84237    0.14417    0.81979    1.000
    Si4659   Si       0.85072    0.17252    0.75546    1.000
    N4660    N        0.83116    0.13546    0.77896    1.000
    N4661    N        0.83340    0.18700    0.82519    1.000
    N4662    N        0.93049    0.16428    0.94041    1.000
    N4663    N        0.94361    0.14906    0.84766    1.000
    Si4664   Si       0.91680    0.15713    0.80497    1.000
    N4665    N        0.88931    0.17392    0.77472    1.000
    N4666    N        0.88491    0.13639    0.82720    1.000
    N4667    N        0.94583    0.12665    0.78810    1.000
    Si4668   Si       0.98698    0.18267    0.74901    1.000
    N4669    N        0.74011    0.15484    0.91940    1.000
    N4670    N        0.82755    0.15601    0.97505    1.000
    N4671    N        0.80614    0.16422    0.89365    1.000
    Si4672   Si       0.82969    0.16894    0.93175    1.000
    Si4673   Si       0.95119    0.13124    0.92062    1.000
    Si4674   Si       0.91734    0.15071    0.97890    1.000
    N4675    N        0.75505    0.21117    0.05585    1.000
    Si4676   Si       0.79228    0.19628    0.07168    1.000
    N4677    N        0.80971    0.23543    0.07351    1.000
    N4678    N        0.80734    0.22514    0.99939    1.000
    N4679    N        0.90032    0.22183    0.06750    1.000
    Si4680   Si       0.89547    0.20303    0.10698    1.000
    N4681    N        0.90464    0.18371    0.00357    1.000
    N4682    N        0.96213    0.21399    0.99820    1.000
    N4683    N        0.85794    0.19883    0.12634    1.000
    N4684    N        0.81344    0.23848    0.14320    1.000
    N4685    N        0.79061    0.19652    0.24183    1.000
    Si4686   Si       0.81750    0.19497    0.14003    1.000
    N4687    N        0.76440    0.21000    0.18241    1.000
    N4688    N        0.74026    0.22830    0.12406    1.000
    Si4689   Si       0.89838    0.23211    0.20238    1.000
    Si4690   Si       0.86351    0.23908    0.14401    1.000
    N4691    N        0.90891    0.18890    0.19316    1.000
    N4692    N        0.90780    0.23029    0.13947    1.000
    N4693    N        0.97452    0.19336    0.17360    1.000
    N4694    N        0.89285    0.22233    0.24307    1.000
    Si4695   Si       0.81771    0.22196    0.33951    1.000
    N4696    N        0.82971    0.20395    0.30287    1.000
    Si4697   Si       0.74731    0.20163    0.25534    1.000
    N4698    N        0.80877    0.18998    0.36784    1.000
    Si4699   Si       0.97834    0.18743    0.46334    1.000
    Si4700   Si       0.74888    0.23916    0.36783    1.000
    N4701    N        0.93796    0.19591    0.35313    1.000
    N4702    N        0.89788    0.22668    0.30858    1.000
    Si4703   Si       0.92497    0.23490    0.27441    1.000
    N4704    N        0.94711    0.19800    0.25994    1.000
    Si4705   Si       0.94230    0.23597    0.34081    1.000
    Si4706   Si       0.87144    0.19053    0.30441    1.000
    N4707    N        0.81678    0.20547    0.43109    1.000
    N4708    N        0.74975    0.20544    0.39471    1.000
    Si4709   Si       0.80410    0.23803    0.45889    1.000
    Si4710   Si       0.78741    0.18772    0.40382    1.000
    Si4711   Si       0.85695    0.18666    0.43331    1.000
    N4712    N        0.98194    0.23878    0.49055    1.000
    N4713    N        0.93932    0.18947    0.48610    1.000
    N4714    N        0.97579    0.20288    0.42238    1.000
    N4715    N        0.88810    0.21220    0.41308    1.000
    Si4716   Si       0.97451    0.24346    0.40868    1.000
    Si4717   Si       0.90374    0.18655    0.37869    1.000
    Si4718   Si       0.76407    0.21232    0.51781    1.000
    Si4719   Si       0.83781    0.19524    0.50588    1.000
    N4720    N        0.81138    0.20335    0.61175    1.000
    N4721    N        0.86065    0.22897    0.51940    1.000
    N4722    N        0.80094    0.21537    0.49376    1.000
    N4723    N        0.88177    0.20510    0.58511    1.000
    N4724    N        0.94858    0.19481    0.58716    1.000
    Si4725   Si       0.88665    0.23444    0.55330    1.000
    Si4726   Si       0.93835    0.23159    0.49893    1.000
    Si4727   Si       0.95094    0.23869    0.58008    1.000
    N4728    N        0.92777    0.24034    0.54194    1.000
    Si4729   Si       0.85245    0.20859    0.61732    1.000
    N4730    N        0.76493    0.23454    0.65649    1.000
    Si4731   Si       0.78088    0.19656    0.64056    1.000
    N4732    N        0.84130    0.22932    0.70160    1.000
    N4733    N        0.77472    0.23091    0.73266    1.000
    Si4734   Si       0.74816    0.23018    0.69848    1.000
    Si4735   Si       0.84085    0.18788    0.68427    1.000
    Si4736   Si       0.81698    0.24242    0.73462    1.000
    Si4737   Si       0.95667    0.19734    0.69510    1.000
    N4738    N        0.94504    0.19781    0.73773    1.000
    N4739    N        0.97088    0.23350    0.67571    1.000
    Si4740   Si       0.84533    0.22151    0.79974    1.000
    N4741    N        0.82514    0.20692    0.76347    1.000
    Si4742   Si       0.77918    0.19791    0.76011    1.000
    Si4743   Si       0.81210    0.19581    0.86189    1.000
    N4744    N        0.75019    0.19143    0.79195    1.000
    N4745    N        0.76959    0.20201    0.86589    1.000
    Si4746   Si       0.74440    0.23592    0.87023    1.000
    N4747    N        0.83013    0.23228    0.87404    1.000
    Si4748   Si       0.91798    0.21198    0.76956    1.000
    N4749    N        0.88437    0.23474    0.78585    1.000
    N4750    N        0.94016    0.19725    0.80658    1.000
    Si4751   Si       0.96886    0.23008    0.79998    1.000
    Si4752   Si       0.95522    0.19032    0.84897    1.000
    N4753    N        0.97638    0.24197    0.84240    1.000
    N4754    N        0.79385    0.20102    0.93952    1.000
    Si4755   Si       0.85340    0.23640    0.90933    1.000
    Si4756   Si       0.79581    0.23881    0.96019    1.000
    Si4757   Si       0.76967    0.18554    0.90823    1.000
    Si4758   Si       0.92160    0.22177    0.98753    1.000
    N4759    N        0.86571    0.19334    0.91714    1.000
    N4760    N        0.91353    0.22987    0.94470    1.000
    N4761    N        0.93154    0.20676    0.88059    1.000
    Si4762   Si       0.90985    0.19577    0.91712    1.000
    N4763    N        0.78674    0.28655    0.03640    1.000
    Si4764   Si       0.81839    0.26294    0.10525    1.000
    N4765    N        0.84997    0.27072    0.03346    1.000
    Si4766   Si       0.81084    0.25148    0.03418    1.000
    N4767    N        0.79905    0.30165    0.10426    1.000
    N4768    N        0.86163    0.26844    0.11002    1.000
    N4769    N        0.97897    0.29957    0.08719    1.000
    Si4770   Si       0.89654    0.29500    0.10408    1.000
    Si4771   Si       0.88932    0.25799    0.04458    1.000
    N4772    N        0.91569    0.28711    0.06660    1.000
    N4773    N        0.91077    0.25954    0.00552    1.000
    Si4774   Si       0.95654    0.29411    0.05055    1.000
    N4775    N        0.76143    0.28240    0.15557    1.000
    N4776    N        0.80404    0.26343    0.20787    1.000
    Si4777   Si       0.83750    0.28656    0.19797    1.000
    N4778    N        0.75320    0.29788    0.23320    1.000
    Si4779   Si       0.78228    0.24865    0.17274    1.000
    N4780    N        0.93286    0.25581    0.19343    1.000
    Si4781   Si       0.96187    0.27585    0.22005    1.000
    N4782    N        0.97828    0.25096    0.13827    1.000
    N4783    N        0.86701    0.25617    0.18499    1.000
    Si4784   Si       0.93830    0.25797    0.15009    1.000
    N4785    N        0.92348    0.29593    0.13693    1.000
    Si4786   Si       0.76599    0.29697    0.99709    1.000
    Si4787   Si       0.80497    0.27980    0.32681    1.000
    N4788    N        0.80636    0.27855    0.28360    1.000
    N4789    N        0.84185    0.25888    0.34154    1.000
    N4790    N        0.78153    0.24494    0.34097    1.000
    Si4791   Si       0.88062    0.26515    0.32507    1.000
    Si4792   Si       0.96722    0.28999    0.28707    1.000
    N4793    N        0.91525    0.27036    0.35276    1.000
    N4794    N        0.87737    0.29070    0.29055    1.000
    N4795    N        0.93536    0.27424    0.25607    1.000
    N4796    N        0.96226    0.24976    0.30471    1.000
    N4797    N        0.98086    0.24419    0.36573    1.000
    N4798    N        0.81032    0.29834    0.40721    1.000
    Si4799   Si       0.84426    0.29565    0.43432    1.000
    N4800    N        0.83642    0.26551    0.46414    1.000
    Si4801   Si       0.76811    0.29243    0.42022    1.000
    N4802    N        0.76822    0.25612    0.44455    1.000
    N4803    N        0.74306    0.28043    0.38505    1.000
    N4804    N        0.90543    0.24965    0.47586    1.000
    N4805    N        0.93775    0.26385    0.41746    1.000
    N4806    N        0.87705    0.28031    0.41322    1.000
    Si4807   Si       0.90141    0.24792    0.43389    1.000
    Si4808   Si       0.91439    0.29054    0.39015    1.000
    Si4809   Si       0.84003    0.30281    0.27561    1.000
    N4810    N        0.74601    0.24333    0.25849    1.000
    Si4811   Si       0.78054    0.26799    0.24752    1.000
    Si4812   Si       0.75325    0.27032    0.57907    1.000
    N4813    N        0.77938    0.28876    0.60865    1.000
    N4814    N        0.75972    0.24598    0.54375    1.000
    N4815    N        0.87609    0.27311    0.57157    1.000
    Si4816   Si       0.88973    0.27198    0.61216    1.000
    Si4817   Si       0.96951    0.29194    0.61544    1.000
    N4818    N        0.93005    0.25641    0.61613    1.000
    N4819    N        0.98775    0.26083    0.58860    1.000
    Si4820   Si       0.86865    0.26076    0.49265    1.000
    N4821    N        0.77695    0.28979    0.68700    1.000
    Si4822   Si       0.76188    0.27891    0.64770    1.000
    N4823    N        0.86054    0.24837    0.63457    1.000
    N4824    N        0.84806    0.29536    0.68350    1.000
    N4825    N        0.81966    0.28661    0.74258    1.000
    N4826    N        0.90556    0.25502    0.68557    1.000
    Si4827   Si       0.86324    0.25660    0.67644    1.000
    N4828    N        0.95707    0.29877    0.65720    1.000
    Si4829   Si       0.93940    0.25948    0.66025    1.000
    Si4830   Si       0.81150    0.26381    0.85187    1.000
    N4831    N        0.82442    0.25801    0.81056    1.000
    Si4832   Si       0.83282    0.29255    0.78402    1.000
    N4833    N        0.83917    0.29956    0.86041    1.000
    N4834    N        0.77313    0.26982    0.86878    1.000
    Si4835   Si       0.95666    0.29595    0.76035    1.000
    N4836    N        0.91121    0.26640    0.84089    1.000
    Si4837   Si       0.90672    0.27453    0.79855    1.000
    N4838    N        0.94281    0.25559    0.77383    1.000
    Si4839   Si       0.94058    0.24882    0.86669    1.000
    Si4840   Si       0.88028    0.28852    0.86294    1.000
    N4841    N        0.87495    0.30220    0.78831    1.000
    N4842    N        0.75962    0.26329    0.96473    1.000
    N4843    N        0.82757    0.25708    0.93858    1.000
    N4844    N        0.88348    0.26708    0.90021    1.000
    Si4845   Si       0.91683    0.26972    0.92825    1.000
    N4846    N        0.95020    0.26867    0.90354    1.000
    Si4847   Si       0.98808    0.27134    0.92308    1.000
    N4848    N        0.98640    0.28108    0.96603    1.000
    Si4849   Si       0.91196    0.29965    0.99181    1.000
    N4850    N        0.83324    0.33507    0.05028    1.000
    Si4851   Si       0.79335    0.31858    0.06447    1.000
    N4852    N        0.75586    0.33957    0.05492    1.000
    Si4853   Si       0.83835    0.30823    0.01610    1.000
    Si4854   Si       0.86411    0.36090    0.07195    1.000
    N4855    N        0.87599    0.33397    0.10637    1.000
    N4856    N        0.94289    0.32101    0.01625    1.000
    Si4857   Si       0.98421    0.33962    0.10687    1.000
    N4858    N        0.83058    0.31077    0.16086    1.000
    Si4859   Si       0.78914    0.31398    0.14513    1.000
    N4860    N        0.77297    0.35437    0.15004    1.000
    Si4861   Si       0.75643    0.34015    0.23338    1.000
    N4862    N        0.84409    0.31239    0.23247    1.000
    Si4863   Si       0.83387    0.35466    0.24498    1.000
    N4864    N        0.95960    0.31544    0.19457    1.000
    N4865    N        0.95530    0.35723    0.13508    1.000
    Si4866   Si       0.86111    0.33761    0.15005    1.000
    Si4867   Si       0.93161    0.36167    0.03210    1.000
    N4868    N        0.89495    0.34318    0.17698    1.000
    Si4869   Si       0.93529    0.33142    0.16222    1.000
    N4870    N        0.94873    0.36161    0.07211    1.000
    N4871    N        0.83825    0.34470    0.28770    1.000
    N4872    N        0.79009    0.31561    0.34659    1.000
    N4873    N        0.85354    0.33728    0.36498    1.000
    Si4874   Si       0.74785    0.31346    0.35378    1.000
    N4875    N        0.74386    0.35155    0.27337    1.000
    N4876    N        0.91208    0.35583    0.47580    1.000
    Si4877   Si       0.90958    0.30684    0.26915    1.000
    N4878    N        0.94114    0.32422    0.29636    1.000
    Si4879   Si       0.94264    0.36323    0.27136    1.000
    Si4880   Si       0.81328    0.33105    0.38144    1.000
    N4881    N        0.75816    0.32873    0.44345    1.000
    N4882    N        0.84752    0.33522    0.45211    1.000
    N4883    N        0.92320    0.33300    0.38584    1.000
    Si4884   Si       0.87337    0.33517    0.48694    1.000
    N4885    N        0.97240    0.30856    0.48401    1.000
    Si4886   Si       0.95327    0.34492    0.47082    1.000
    Si4887   Si       0.89206    0.35928    0.37140    1.000
    Si4888   Si       0.96279    0.35134    0.39258    1.000
    Si4889   Si       0.84444    0.36085    0.32725    1.000
    N4890    N        0.96909    0.36173    0.43316    1.000
    N4891    N        0.90965    0.34434    0.24695    1.000
    N4892    N        0.82416    0.32720    0.56454    1.000
    Si4893   Si       0.80041    0.32611    0.60034    1.000
    Si4894   Si       0.74699    0.34963    0.55378    1.000
    N4895    N        0.76641    0.35365    0.59311    1.000
    Si4896   Si       0.86527    0.31121    0.55307    1.000
    N4897    N        0.88824    0.34707    0.56437    1.000
    Si4898   Si       0.91292    0.33990    0.59899    1.000
    N4899    N        0.94700    0.31654    0.58537    1.000
    Si4900   Si       0.98296    0.33789    0.57537    1.000
    N4901    N        0.87176    0.29994    0.51148    1.000
    N4902    N        0.82673    0.34021    0.63590    1.000
    N4903    N        0.80356    0.35243    0.69759    1.000
    Si4904   Si       0.81174    0.31059    0.70501    1.000
    N4905    N        0.89268    0.35213    0.68252    1.000
    Si4906   Si       0.91845    0.35105    0.71987    1.000
    Si4907   Si       0.86483    0.32768    0.65795    1.000
    N4908    N        0.88932    0.31294    0.62387    1.000
    Si4909   Si       0.97744    0.31819    0.69040    1.000
    N4910    N        0.95027    0.31967    0.72187    1.000
    N4911    N        0.81672    0.32820    0.80527    1.000
    Si4912   Si       0.84337    0.33988    0.84077    1.000
    N4913    N        0.76935    0.35141    0.75771    1.000
    N4914    N        0.74188    0.33175    0.85992    1.000
    Si4915   Si       0.89862    0.34143    0.79892    1.000
    N4916    N        0.93603    0.31459    0.79668    1.000
    N4917    N        0.89135    0.32830    0.84853    1.000
    Si4918   Si       0.97132    0.34134    0.80460    1.000
    N4919    N        0.90174    0.35989    0.75875    1.000
    Si4920   Si       0.91640    0.36125    0.86079    1.000
    N4921    N        0.78471    0.31411    0.92014    1.000
    N4922    N        0.84554    0.33778    0.93152    1.000
    Si4923   Si       0.76567    0.34531    0.94365    1.000
    N4924    N        0.75772    0.33871    0.98651    1.000
    Si4925   Si       0.75557    0.30363    0.88851    1.000
    Si4926   Si       0.82158    0.30165    0.93927    1.000
    N4927    N        0.97287    0.34728    0.95331    1.000
    Si4928   Si       0.97790    0.31903    0.98713    1.000
    Si4929   Si       0.86896    0.35354    0.96647    1.000
    Si4930   Si       0.93503    0.34394    0.93475    1.000
    Si4931   Si       0.98424    0.33748    0.88408    1.000
    N4932    N        0.87429    0.32193    0.99603    1.000
    N4933    N        0.92038    0.30546    0.95039    1.000
    N4934    N        0.94090    0.34534    0.89237    1.000
    N4935    N        0.81068    0.30551    0.98208    1.000
    N4936    N        0.83622    0.39542    0.07509    1.000
    N4937    N        0.78277    0.39327    0.01581    1.000
    Si4938   Si       0.85103    0.40753    0.11656    1.000
    Si4939   Si       0.80529    0.41297    0.04922    1.000
    Si4940   Si       0.74815    0.36680    0.01909    1.000
    Si4941   Si       0.86715    0.40495    0.01762    1.000
    Si4942   Si       0.93511    0.38389    0.10691    1.000
    N4943    N        0.89381    0.39714    0.10637    1.000
    N4944    N        0.89062    0.37439    0.03683    1.000
    N4945    N        0.94603    0.38733    0.00125    1.000
    N4946    N        0.97501    0.36976    0.24066    1.000
    Si4947   Si       0.89472    0.36773    0.21339    1.000
    Si4948   Si       0.80241    0.38642    0.15730    1.000
    N4949    N        0.78076    0.40860    0.18742    1.000
    N4950    N        0.84306    0.37573    0.14816    1.000
    N4951    N        0.85911    0.38635    0.23170    1.000
    Si4952   Si       0.78707    0.40731    0.23156    1.000
    N4953    N        0.80789    0.41921    0.12738    1.000
    N4954    N        0.79403    0.35999    0.22680    1.000
    N4955    N        0.74407    0.41339    0.24489    1.000
    Si4956   Si       0.96590    0.40482    0.21818    1.000
    N4957    N        0.92213    0.39965    0.20931    1.000
    N4958    N        0.79344    0.40040    0.28136    1.000
    N4959    N        0.82161    0.39560    0.34065    1.000
    Si4960   Si       0.74874    0.39361    0.28170    1.000
    N4961    N        0.95449    0.38749    0.36916    1.000
    N4962    N        0.88714    0.37359    0.32979    1.000
    N4963    N        0.92978    0.40138    0.28728    1.000
    Si4964   Si       0.89527    0.41124    0.31128    1.000
    Si4965   Si       0.98482    0.39610    0.34146    1.000
    N4966    N        0.89321    0.39621    0.39577    1.000
    N4967    N        0.86459    0.40412    0.45679    1.000
    Si4968   Si       0.80185    0.40208    0.37925    1.000
    Si4969   Si       0.83282    0.37580    0.46606    1.000
    Si4970   Si       0.76652    0.36932    0.43243    1.000
    N4971    N        0.79184    0.38965    0.46175    1.000
    N4972    N        0.79338    0.36413    0.39855    1.000
    Si4973   Si       0.92501    0.41992    0.37915    1.000
    Si4974   Si       0.90102    0.39976    0.47686    1.000
    N4975    N        0.76553    0.42388    0.37397    1.000
    N4976    N        0.83356    0.39785    0.56124    1.000
    Si4977   Si       0.74960    0.38949    0.61406    1.000
    N4978    N        0.77546    0.37024    0.52741    1.000
    Si4979   Si       0.77335    0.40374    0.49920    1.000
    N4980    N        0.84590    0.36346    0.50739    1.000
    Si4981   Si       0.81622    0.36383    0.54048    1.000
    Si4982   Si       0.98722    0.39528    0.53197    1.000
    Si4983   Si       0.87697    0.38745    0.54991    1.000
    N4984    N        0.96704    0.37826    0.56536    1.000
    Si4985   Si       0.94353    0.40094    0.59326    1.000
    N4986    N        0.89346    0.41086    0.51767    1.000
    N4987    N        0.90289    0.41130    0.58003    1.000
    N4988    N        0.97518    0.37197    0.49618    1.000
    N4989    N        0.78051    0.39829    0.64273    1.000
    Si4990   Si       0.82193    0.38884    0.71596    1.000
    Si4991   Si       0.76224    0.37206    0.71637    1.000
    Si4992   Si       0.81132    0.37297    0.65796    1.000
    N4993    N        0.83987    0.40115    0.67827    1.000
    N4994    N        0.78572    0.41435    0.71440    1.000
    Si4995   Si       0.93363    0.41981    0.73158    1.000
    Si4996   Si       0.98430    0.39321    0.69100    1.000
    Si4997   Si       0.91780    0.38266    0.66464    1.000
    N4998    N        0.94150    0.38598    0.70336    1.000
    N4999    N        0.92960    0.37220    0.62549    1.000
    N5000    N        0.88947    0.42115    0.73745    1.000
    N5001    N        0.79528    0.39253    0.81086    1.000
    Si5002   Si       0.79884    0.40040    0.85386    1.000
    N5003    N        0.83601    0.37100    0.75211    1.000
    Si5004   Si       0.80338    0.36187    0.78092    1.000
    N5005    N        0.86658    0.37368    0.81075    1.000
    Si5006   Si       0.87100    0.41007    0.83554    1.000
    Si5007   Si       0.87000    0.39189    0.76874    1.000
    N5008    N        0.93423    0.37140    0.82204    1.000
    N5009    N        0.95430    0.41544    0.77008    1.000
    Si5010   Si       0.93806    0.41289    0.81105    1.000
    N5011    N        0.82228    0.36650    0.86990    1.000
    N5012    N        0.75827    0.40577    0.87197    1.000
    N5013    N        0.79226    0.37767    0.94287    1.000
    Si5014   Si       0.80503    0.40025    0.97883    1.000
    N5015    N        0.84266    0.38152    0.98735    1.000
    Si5016   Si       0.82657    0.37307    0.91446    1.000
    N5017    N        0.84093    0.41292    0.92013    1.000
    Si5018   Si       0.88341    0.41704    0.90836    1.000
    Si5019   Si       0.92081    0.40495    0.97064    1.000
    N5020    N        0.89124    0.39501    0.87174    1.000
    N5021    N        0.90390    0.37047    0.94944    1.000
    N5022    N        0.83439    0.43514    0.02330    1.000
    N5023    N        0.77882    0.43938    0.07110    1.000
    Si5024   Si       0.78327    0.44999    0.11155    1.000
    Si5025   Si       0.74743    0.46977    0.05700    1.000
    N5026    N        0.74089    0.45544    0.01720    1.000
    Si5027   Si       0.83642    0.47447    0.00546    1.000
    N5028    N        0.86474    0.44962    0.11745    1.000
    N5029    N        0.92021    0.45250    0.05997    1.000
    Si5030   Si       0.90885    0.46430    0.01714    1.000
    Si5031   Si       0.96307    0.44891    0.04267    1.000
    Si5032   Si       0.90704    0.44101    0.10255    1.000
    N5033    N        0.94986    0.47476    0.00547    1.000
    N5034    N        0.97907    0.47176    0.07630    1.000
    N5035    N        0.94878    0.42399    0.11995    1.000
    N5036    N        0.89579    0.42967    0.99731    1.000
    Si5037   Si       0.74434    0.42443    0.17181    1.000
    N5038    N        0.74655    0.44469    0.13439    1.000
    N5039    N        0.81453    0.44188    0.23329    1.000
    Si5040   Si       0.85396    0.42774    0.24525    1.000
    N5041    N        0.93771    0.45793    0.17906    1.000
    N5042    N        0.88645    0.45404    0.23259    1.000
    Si5043   Si       0.92352    0.44341    0.21597    1.000
    Si5044   Si       0.96920    0.43644    0.15526    1.000
    N5045    N        0.96276    0.44336    0.23961    1.000
    N5046    N        0.79269    0.45947    0.31706    1.000
    Si5047   Si       0.77029    0.46266    0.35515    1.000
    Si5048   Si       0.81822    0.42424    0.30735    1.000
    N5049    N        0.85893    0.42524    0.28958    1.000
    N5050    N        0.94314    0.47292    0.29627    1.000
    N5051    N        0.91186    0.43768    0.34280    1.000
    Si5052   Si       0.95789    0.43461    0.28341    1.000
    Si5053   Si       0.93756    0.47314    0.33982    1.000
    N5054    N        0.98002    0.47252    0.35038    1.000
    Si5055   Si       0.80113    0.46095    0.41616    1.000
    N5056    N        0.75892    0.46380    0.42541    1.000
    N5057    N        0.82026    0.47150    0.45464    1.000
    N5058    N        0.82645    0.42579    0.40285    1.000
    Si5059   Si       0.80158    0.47599    0.49493    1.000
    N5060    N        0.88787    0.47345    0.48483    1.000
    Si5061   Si       0.86568    0.42140    0.41851    1.000
    Si5062   Si       0.92431    0.46071    0.44050    1.000
    Si5063   Si       0.98072    0.47124    0.39370    1.000
    N5064    N        0.88243    0.46325    0.42075    1.000
    Si5065   Si       0.96825    0.43954    0.48067    1.000
    N5066    N        0.94332    0.45163    0.40023    1.000
    N5067    N        0.93073    0.42579    0.46278    1.000
    N5068    N        0.78633    0.45156    0.58341    1.000
    N5069    N        0.79543    0.43751    0.51547    1.000
    Si5070   Si       0.81727    0.43666    0.55394    1.000
    N5071    N        0.85680    0.45978    0.55288    1.000
    Si5072   Si       0.81087    0.46435    0.61661    1.000
    N5073    N        0.84632    0.43794    0.61844    1.000
    Si5074   Si       0.74278    0.46069    0.58273    1.000
    Si5075   Si       0.87816    0.44556    0.59158    1.000
    Si5076   Si       0.96736    0.46178    0.55589    1.000
    Si5077   Si       0.89177    0.45546    0.52411    1.000
    N5078    N        0.96718    0.43802    0.59365    1.000
    N5079    N        0.97288    0.43568    0.52224    1.000
    N5080    N        0.95077    0.45526    0.71314    1.000
    N5081    N        0.79907    0.46370    0.65783    1.000
    N5082    N        0.82966    0.46590    0.72735    1.000
    Si5083   Si       0.77751    0.42886    0.67231    1.000
    Si5084   Si       0.78967    0.44949    0.74167    1.000
    N5085    N        0.86380    0.47368    0.66948    1.000
    Si5086   Si       0.86287    0.43355    0.65868    1.000
    Si5087   Si       0.93921    0.44966    0.67152    1.000
    N5088    N        0.97544    0.42558    0.66078    1.000
    N5089    N        0.90623    0.42436    0.65952    1.000
    N5090    N        0.78892    0.45964    0.78417    1.000
    Si5091   Si       0.81416    0.43172    0.80500    1.000
    N5092    N        0.83230    0.42998    0.84433    1.000
    N5093    N        0.84930    0.43055    0.78150    1.000
    Si5094   Si       0.84388    0.46563    0.86704    1.000
    Si5095   Si       0.86394    0.45522    0.74929    1.000
    N5096    N        0.90201    0.43793    0.81850    1.000
    Si5097   Si       0.97505    0.46575    0.86313    1.000
    N5098    N        0.96676    0.43786    0.83050    1.000
    Si5099   Si       0.98404    0.46498    0.79960    1.000
    Si5100   Si       0.89335    0.47913    0.81159    1.000
    Si5101   Si       0.82286    0.45329    0.93302    1.000
    Si5102   Si       0.75698    0.46154    0.97649    1.000
    N5103    N        0.79499    0.44210    0.96499    1.000
    N5104    N        0.81021    0.47284    0.89483    1.000
    N5105    N        0.84389    0.48163    0.96177    1.000
    N5106    N        0.91821    0.42921    0.93232    1.000
    Si5107   Si       0.91306    0.47062    0.91680    1.000
    N5108    N        0.87652    0.45961    0.89578    1.000
    N5109    N        0.80701    0.50108    0.02578    1.000
    Si5110   Si       0.80639    0.50983    0.07085    1.000
    N5111    N        0.75998    0.51162    0.07605    1.000
    N5112    N        0.85056    0.50732    0.07596    1.000
    Si5113   Si       0.78441    0.52866    0.00036    1.000
    N5114    N        0.80340    0.48853    0.11535    1.000
    Si5115   Si       0.75124    0.52502    0.11891    1.000
    Si5116   Si       0.84809    0.48894    0.11420    1.000
    Si5117   Si       0.94356    0.49494    0.08660    1.000
    N5118    N        0.87732    0.49235    0.01058    1.000
    N5119    N        0.92276    0.51991    0.05715    1.000
    Si5120   Si       0.87996    0.51990    0.04756    1.000
    N5121    N        0.96788    0.52552    0.10815    1.000
    N5122    N        0.91844    0.48280    0.12028    1.000
    N5123    N        0.83592    0.50739    0.22663    1.000
    Si5124   Si       0.80650    0.50914    0.15406    1.000
    N5125    N        0.84830    0.51361    0.14973    1.000
    N5126    N        0.78512    0.49194    0.18805    1.000
    Si5127   Si       0.74247    0.49486    0.18155    1.000
    Si5128   Si       0.80194    0.48143    0.22697    1.000
    Si5129   Si       0.98386    0.48440    0.24018    1.000
    N5130    N        0.95333    0.51508    0.24063    1.000
    Si5131   Si       0.87786    0.49710    0.22973    1.000
    Si5132   Si       0.92172    0.49327    0.16211    1.000
    N5133    N        0.90011    0.51312    0.19602    1.000
    N5134    N        0.95858    0.52179    0.17275    1.000
    Si5135   Si       0.93571    0.53676    0.20781    1.000
    N5136    N        0.82750    0.51974    0.32093    1.000
    Si5137   Si       0.78929    0.50221    0.30363    1.000
    N5138    N        0.75477    0.51832    0.32729    1.000
    N5139    N        0.78148    0.50094    0.26081    1.000
    Si5140   Si       0.82341    0.51665    0.36472    1.000
    N5141    N        0.88752    0.51557    0.26984    1.000
    Si5142   Si       0.93025    0.51273    0.27874    1.000
    N5143    N        0.92004    0.50842    0.35786    1.000
    N5144    N        0.85872    0.52829    0.45214    1.000
    N5145    N        0.80008    0.48371    0.37932    1.000
    Si5146   Si       0.75553    0.53501    0.48514    1.000
    Si5147   Si       0.86132    0.48478    0.45308    1.000
    N5148    N        0.86018    0.51536    0.38664    1.000
    N5149    N        0.76346    0.49405    0.49487    1.000
    Si5150   Si       0.96540    0.51600    0.44277    1.000
    N5151    N        0.98387    0.51393    0.40384    1.000
    N5152    N        0.92125    0.51106    0.43123    1.000
    Si5153   Si       0.89940    0.49804    0.39496    1.000
    N5154    N        0.96630    0.47635    0.45820    1.000
    N5155    N        0.82299    0.50122    0.59484    1.000
    Si5156   Si       0.84386    0.50144    0.55654    1.000
    N5157    N        0.82521    0.50606    0.51624    1.000
    Si5158   Si       0.91156    0.50568    0.57241    1.000
    N5159    N        0.88099    0.52240    0.54917    1.000
    N5160    N        0.94342    0.52798    0.58893    1.000
    N5161    N        0.89459    0.48244    0.60514    1.000
    N5162    N        0.76452    0.48225    0.72276    1.000
    Si5163   Si       0.78341    0.51998    0.72603    1.000
    N5164    N        0.81329    0.52480    0.69437    1.000
    Si5165   Si       0.82526    0.48440    0.68788    1.000
    N5166    N        0.77811    0.53705    0.63413    1.000
    N5167    N        0.93443    0.48928    0.65604    1.000
    Si5168   Si       0.96037    0.51442    0.62684    1.000
    N5169    N        0.92930    0.51782    0.71591    1.000
    Si5170   Si       0.89155    0.49672    0.64669    1.000
    Si5171   Si       0.96273    0.49489    0.72718    1.000
    N5172    N        0.89298    0.53766    0.65732    1.000
    N5173    N        0.92590    0.47392    0.54514    1.000
    Si5174   Si       0.78159    0.50165    0.79510    1.000
    N5175    N        0.79738    0.50826    0.83630    1.000
    N5176    N        0.80017    0.52645    0.76520    1.000
    Si5177   Si       0.83800    0.52909    0.83344    1.000
    N5178    N        0.86095    0.49219    0.83704    1.000
    N5179    N        0.74018    0.48384    0.86526    1.000
    N5180    N        0.96739    0.49398    0.77073    1.000
    N5181    N        0.92543    0.50327    0.82749    1.000
    Si5182   Si       0.95130    0.52412    0.79785    1.000
    N5183    N        0.88830    0.48536    0.76873    1.000
    Si5184   Si       0.93163    0.51689    0.86640    1.000
    Si5185   Si       0.90066    0.52125    0.74773    1.000
    Si5186   Si       0.78090    0.49929    0.87606    1.000
    Si5187   Si       0.75522    0.52968    0.93604    1.000
    N5188    N        0.76480    0.50418    0.96984    1.000
    N5189    N        0.77901    0.53389    0.90012    1.000
    Si5190   Si       0.87741    0.50543    0.96926    1.000
    N5191    N        0.94262    0.47878    0.88805    1.000
    Si5192   Si       0.95230    0.50472    0.97552    1.000
    N5193    N        0.98267    0.50919    0.94484    1.000
    N5194    N        0.91589    0.49824    0.95031    1.000
    N5195    N        0.80278    0.55469    0.07373    1.000
    Si5196   Si       0.83942    0.57637    0.06492    1.000
    Si5197   Si       0.75840    0.55542    0.06730    1.000
    N5198    N        0.75133    0.54744    0.02215    1.000
    N5199    N        0.86634    0.55868    0.03346    1.000
    Si5200   Si       0.94827    0.54960    0.03730    1.000
    N5201    N        0.86896    0.58680    0.09394    1.000
    N5202    N        0.93296    0.59028    0.04480    1.000
    Si5203   Si       0.78103    0.57820    0.17530    1.000
    N5204    N        0.84973    0.56393    0.19253    1.000
    N5205    N        0.78502    0.56697    0.21772    1.000
    Si5206   Si       0.82408    0.54982    0.22517    1.000
    N5207    N        0.78048    0.54373    0.14850    1.000
    Si5208   Si       0.75756    0.58467    0.24761    1.000
    Si5209   Si       0.87592    0.53841    0.16847    1.000
    N5210    N        0.90738    0.55299    0.14206    1.000
    Si5211   Si       0.95099    0.54871    0.14081    1.000
    N5212    N        0.92220    0.57661    0.21193    1.000
    N5213    N        0.97427    0.58516    0.13746    1.000
    N5214    N        0.84087    0.56791    0.26304    1.000
    N5215    N        0.77697    0.58036    0.33377    1.000
    Si5216   Si       0.74190    0.55893    0.31695    1.000
    Si5217   Si       0.85815    0.53829    0.29348    1.000
    N5218    N        0.74138    0.55460    0.27440    1.000
    N5219    N        0.88007    0.56600    0.32073    1.000
    Si5220   Si       0.91666    0.54999    0.33769    1.000
    N5221    N        0.93129    0.58154    0.36297    1.000
    N5222    N        0.94679    0.54183    0.30695    1.000
    Si5223   Si       0.78833    0.58245    0.37517    1.000
    Si5224   Si       0.85102    0.55316    0.41506    1.000
    N5225    N        0.75947    0.58404    0.41082    1.000
    Si5226   Si       0.79265    0.56672    0.43264    1.000
    N5227    N        0.81126    0.55332    0.39282    1.000
    N5228    N        0.79404    0.54700    0.47193    1.000
    N5229    N        0.82853    0.59002    0.43913    1.000
    Si5230   Si       0.83249    0.53838    0.48733    1.000
    N5231    N        0.89025    0.57107    0.41838    1.000
    N5232    N        0.91795    0.54965    0.48754    1.000
    N5233    N        0.98287    0.59027    0.40763    1.000
    N5234    N        0.98493    0.54957    0.46149    1.000
    Si5235   Si       0.90004    0.54489    0.45041    1.000
    Si5236   Si       0.95790    0.56812    0.49206    1.000
    Si5237   Si       0.98823    0.55424    0.31122    1.000
    Si5238   Si       0.76565    0.58190    0.54227    1.000
    N5239    N        0.79014    0.55444    0.56709    1.000
    N5240    N        0.85422    0.57004    0.50948    1.000
    Si5241   Si       0.80805    0.54204    0.60337    1.000
    N5242    N        0.83805    0.57074    0.61489    1.000
    N5243    N        0.97299    0.55721    0.53033    1.000
    N5244    N        0.91673    0.57914    0.55052    1.000
    Si5245   Si       0.89291    0.55576    0.52379    1.000
    Si5246   Si       0.95341    0.56627    0.56772    1.000
    N5247    N        0.90695    0.59316    0.61766    1.000
    Si5248   Si       0.78901    0.55321    0.67368    1.000
    N5249    N        0.76039    0.55561    0.71196    1.000
    Si5250   Si       0.77205    0.58576    0.74252    1.000
    N5251    N        0.85988    0.58781    0.67927    1.000
    N5252    N        0.73877    0.56359    0.51467    1.000
    N5253    N        0.92608    0.57960    0.70162    1.000
    N5254    N        0.86879    0.54803    0.73608    1.000
    Si5255   Si       0.94835    0.59073    0.63089    1.000
    N5256    N        0.95670    0.55220    0.64923    1.000
    Si5257   Si       0.92849    0.54138    0.68102    1.000
    Si5258   Si       0.88375    0.58128    0.71399    1.000
    Si5259   Si       0.87420    0.57507    0.64000    1.000
    N5260    N        0.81730    0.58871    0.74652    1.000
    Si5261   Si       0.83434    0.55337    0.76195    1.000
    N5262    N        0.85329    0.55253    0.80078    1.000
    N5263    N        0.75175    0.58102    0.78073    1.000
    N5264    N        0.96965    0.53786    0.87503    1.000
    N5265    N        0.83673    0.55461    0.86920    1.000
    N5266    N        0.77660    0.59326    0.86881    1.000
    Si5267   Si       0.89302    0.57504    0.80189    1.000
    N5268    N        0.91791    0.54539    0.77949    1.000
    N5269    N        0.97789    0.55662    0.80835    1.000
    N5270    N        0.89449    0.59261    0.84165    1.000
    Si5271   Si       0.96652    0.59821    0.80266    1.000
    Si5272   Si       0.79284    0.59119    0.96491    1.000
    N5273    N        0.81206    0.56136    0.98943    1.000
    Si5274   Si       0.80207    0.56702    0.89195    1.000
    N5275    N        0.75713    0.56845    0.95278    1.000
    Si5276   Si       0.85600    0.56994    0.99277    1.000
    N5277    N        0.81388    0.59263    0.92644    1.000
    N5278    N        0.87552    0.54782    0.96172    1.000
    Si5279   Si       0.94796    0.58137    0.96928    1.000
    N5280    N        0.94664    0.54476    0.99446    1.000
    Si5281   Si       0.90023    0.55598    0.92486    1.000
    N5282    N        0.87780    0.59269    0.91019    1.000
    Si5283   Si       0.87483    0.57226    0.87331    1.000
    N5284    N        0.94314    0.56276    0.93233    1.000
    Si5285   Si       0.97612    0.54225    0.91607    1.000
    N5286    N        0.89967    0.53593    0.88828    1.000
    N5287    N        0.77055    0.63134    0.10586    1.000
    N5288    N        0.82154    0.61395    0.05083    1.000
    Si5289   Si       0.82472    0.63707    0.01238    1.000
    Si5290   Si       0.78283    0.62842    0.06491    1.000
    N5291    N        0.75148    0.59953    0.05786    1.000
    Si5292   Si       0.90160    0.60372    0.07201    1.000
    Si5293   Si       0.92619    0.62717    0.01984    1.000
    N5294    N        0.89885    0.64325    0.05412    1.000
    N5295    N        0.92303    0.61874    0.11018    1.000
    N5296    N        0.96446    0.64609    0.02423    1.000
    Si5297   Si       0.96582    0.62638    0.11944    1.000
    N5298    N        0.75057    0.60998    0.17058    1.000
    N5299    N        0.84365    0.62593    0.22473    1.000
    Si5300   Si       0.84588    0.60605    0.18530    1.000
    N5301    N        0.81050    0.60695    0.16065    1.000
    Si5302   Si       0.78034    0.63512    0.14843    1.000
    N5303    N        0.97579    0.61274    0.21966    1.000
    N5304    N        0.93392    0.64817    0.17762    1.000
    N5305    N        0.87899    0.61594    0.16010    1.000
    Si5306   Si       0.93598    0.61827    0.21059    1.000
    N5307    N        0.91137    0.64355    0.23785    1.000
    Si5308   Si       0.89443    0.59077    0.12882    1.000
    Si5309   Si       0.75436    0.65452    0.99816    1.000
    N5310    N        0.83683    0.62863    0.30373    1.000
    Si5311   Si       0.79354    0.61394    0.31267    1.000
    Si5312   Si       0.82940    0.60899    0.26296    1.000
    N5313    N        0.76310    0.64285    0.32330    1.000
    N5314    N        0.78742    0.60633    0.26949    1.000
    Si5315   Si       0.87293    0.60960    0.32061    1.000
    N5316    N        0.96848    0.64304    0.28189    1.000
    N5317    N        0.90246    0.63592    0.30221    1.000
    N5318    N        0.97041    0.64246    0.35864    1.000
    N5319    N        0.86907    0.61581    0.36461    1.000
    Si5320   Si       0.96958    0.60003    0.36576    1.000
    Si5321   Si       0.98431    0.65884    0.32045    1.000
    Si5322   Si       0.92681    0.65688    0.27537    1.000
    N5323    N        0.80265    0.62363    0.38274    1.000
    Si5324   Si       0.83852    0.63120    0.45434    1.000
    Si5325   Si       0.77345    0.64393    0.41108    1.000
    Si5326   Si       0.84291    0.64214    0.38536    1.000
    N5327    N        0.86211    0.64889    0.42246    1.000
    N5328    N        0.85029    0.63902    0.49463    1.000
    N5329    N        0.79980    0.65304    0.44479    1.000
    N5330    N        0.95537    0.60695    0.47440    1.000
    Si5331   Si       0.90246    0.59976    0.38998    1.000
    N5332    N        0.92516    0.62901    0.41358    1.000
    Si5333   Si       0.96280    0.62122    0.43414    1.000
    N5334    N        0.79564    0.61260    0.52809    1.000
    N5335    N        0.79814    0.63905    0.59116    1.000
    Si5336   Si       0.83803    0.60775    0.52333    1.000
    Si5337   Si       0.83195    0.61090    0.59730    1.000
    N5338    N        0.85803    0.61288    0.56279    1.000
    Si5339   Si       0.79241    0.65084    0.54775    1.000
    N5340    N        0.92431    0.64289    0.56955    1.000
    Si5341   Si       0.89936    0.60916    0.57577    1.000
    Si5342   Si       0.96616    0.64161    0.58265    1.000
    N5343    N        0.97077    0.59744    0.59454    1.000
    Si5344   Si       0.83171    0.61734    0.66854    1.000
    N5345    N        0.83202    0.64600    0.70142    1.000
    Si5346   Si       0.76322    0.62388    0.68168    1.000
    N5347    N        0.76054    0.62141    0.72343    1.000
    N5348    N        0.84945    0.63308    0.63350    1.000
    Si5349   Si       0.83506    0.62746    0.74117    1.000
    N5350    N        0.95807    0.62042    0.66007    1.000
    Si5351   Si       0.96089    0.60687    0.70164    1.000
    N5352    N        0.87792    0.61624    0.74146    1.000
    N5353    N        0.94957    0.63558    0.73244    1.000
    N5354    N        0.79331    0.59551    0.66870    1.000
    N5355    N        0.78344    0.64414    0.82270    1.000
    Si5356   Si       0.74885    0.61878    0.80674    1.000
    Si5357   Si       0.79079    0.63565    0.86396    1.000
    Si5358   Si       0.91295    0.63708    0.75738    1.000
    N5359    N        0.92383    0.61009    0.79194    1.000
    N5360    N        0.96333    0.61705    0.84155    1.000
    Si5361   Si       0.92077    0.62651    0.83362    1.000
    Si5362   Si       0.98055    0.64977    0.76095    1.000
    Si5363   Si       0.98537    0.64658    0.86429    1.000
    N5364    N        0.83297    0.63557    0.87756    1.000
    N5365    N        0.79334    0.63064    0.98212    1.000
    Si5366   Si       0.84529    0.61996    0.91521    1.000
    N5367    N        0.85827    0.65100    0.94101    1.000
    N5368    N        0.85839    0.61265    0.99257    1.000
    N5369    N        0.98752    0.60201    0.96976    1.000
    Si5370   Si       0.88681    0.63773    0.96976    1.000
    N5371    N        0.92111    0.61099    0.97959    1.000
    N5372    N        0.82256    0.69401    0.09050    1.000
    Si5373   Si       0.80998    0.69089    0.04771    1.000
    N5374    N        0.84120    0.67557    0.02357    1.000
    N5375    N        0.77945    0.66125    0.03502    1.000
    N5376    N        0.95097    0.67875    0.08867    1.000
    Si5377   Si       0.88396    0.67857    0.03026    1.000
    N5378    N        0.88996    0.70437    0.06597    1.000
    Si5379   Si       0.90610    0.66979    0.08804    1.000
    Si5380   Si       0.98249    0.66094    0.06118    1.000
    Si5381   Si       0.89577    0.65494    0.15823    1.000
    N5382    N        0.77728    0.67847    0.15094    1.000
    Si5383   Si       0.80023    0.70837    0.12787    1.000
    Si5384   Si       0.74532    0.69727    0.17130    1.000
    N5385    N        0.88509    0.67947    0.12490    1.000
    Si5386   Si       0.87300    0.66028    0.22697    1.000
    Si5387   Si       0.96519    0.68020    0.17353    1.000
    Si5388   Si       0.87257    0.71261    0.15954    1.000
    N5389    N        0.98143    0.68971    0.21333    1.000
    N5390    N        0.87391    0.67901    0.18714    1.000
    N5391    N        0.95506    0.71500    0.15056    1.000
    N5392    N        0.80409    0.69573    0.30015    1.000
    Si5393   Si       0.84471    0.67823    0.29942    1.000
    Si5394   Si       0.76597    0.67717    0.29552    1.000
    N5395    N        0.74662    0.67045    0.25797    1.000
    N5396    N        0.73523    0.69880    0.32183    1.000
    Si5397   Si       0.90270    0.66583    0.42146    1.000
    N5398    N        0.83581    0.68305    0.37268    1.000
    N5399    N        0.86070    0.68466    0.26042    1.000
    N5400    N        0.92840    0.70098    0.26813    1.000
    N5401    N        0.96096    0.69560    0.32798    1.000
    N5402    N        0.87553    0.70305    0.31964    1.000
    Si5403   Si       0.87377    0.70241    0.36230    1.000
    Si5404   Si       0.95009    0.67978    0.36958    1.000
    N5405    N        0.76427    0.67879    0.38260    1.000
    Si5406   Si       0.79918    0.69469    0.45850    1.000
    Si5407   Si       0.79970    0.70524    0.38373    1.000
    N5408    N        0.76346    0.70649    0.47802    1.000
    N5409    N        0.83551    0.70724    0.47992    1.000
    N5410    N        0.97857    0.70658    0.39275    1.000
    N5411    N        0.90786    0.68654    0.38122    1.000
    N5412    N        0.91006    0.68738    0.45642    1.000
    Si5413   Si       0.92320    0.70130    0.49542    1.000
    N5414    N        0.98680    0.65556    0.43690    1.000
    N5415    N        0.82477    0.67942    0.54332    1.000
    Si5416   Si       0.85326    0.68043    0.50989    1.000
    Si5417   Si       0.83737    0.70119    0.58006    1.000
    N5418    N        0.80386    0.70073    0.61082    1.000
    N5419    N        0.75333    0.66972    0.54188    1.000
    Si5420   Si       0.78099    0.66523    0.61960    1.000
    N5421    N        0.87621    0.68439    0.59478    1.000
    N5422    N        0.89260    0.69281    0.52479    1.000
    Si5423   Si       0.90934    0.68582    0.56679    1.000
    N5424    N        0.94737    0.70557    0.56972    1.000
    Si5425   Si       0.97853    0.69451    0.53978    1.000
    N5426    N        0.96145    0.68061    0.50275    1.000
    Si5427   Si       0.96314    0.71241    0.61036    1.000
    N5428    N        0.97546    0.66854    0.61934    1.000
    Si5429   Si       0.82881    0.68762    0.69722    1.000
    Si5430   Si       0.76052    0.69560    0.68128    1.000
    N5431    N        0.84831    0.69934    0.66003    1.000
    N5432    N        0.77698    0.66145    0.66289    1.000
    N5433    N        0.85552    0.70171    0.72893    1.000
    N5434    N        0.96316    0.69318    0.68496    1.000
    Si5435   Si       0.87208    0.67007    0.63622    1.000
    N5436    N        0.90855    0.67039    0.66113    1.000
    Si5437   Si       0.95065    0.66247    0.65707    1.000
    Si5438   Si       0.92405    0.71157    0.67382    1.000
    Si5439   Si       0.80049    0.67690    0.80097    1.000
    Si5440   Si       0.85614    0.68888    0.77193    1.000
    N5441    N        0.76759    0.70416    0.78735    1.000
    N5442    N        0.83550    0.70607    0.80816    1.000
    N5443    N        0.82477    0.65813    0.77039    1.000
    Si5444   Si       0.92506    0.69045    0.80379    1.000
    N5445    N        0.89642    0.67323    0.77844    1.000
    N5446    N        0.91651    0.66880    0.84181    1.000
    N5447    N        0.96068    0.67182    0.79021    1.000
    Si5448   Si       0.85422    0.69366    0.92952    1.000
    N5449    N        0.81447    0.70536    0.91805    1.000
    N5450    N        0.74264    0.67260    0.95904    1.000
    N5451    N        0.97653    0.67296    0.96596    1.000
    Si5452   Si       0.94303    0.69469    0.98870    1.000
    N5453    N        0.95987    0.66117    0.89800    1.000
    N5454    N        0.89163    0.69629    0.90747    1.000
    Si5455   Si       0.92438    0.68618    0.88174    1.000
    Si5456   Si       0.99214    0.67745    0.92672    1.000
    N5457    N        0.76239    0.65827    0.88646    1.000
    N5458    N        0.90697    0.67021    0.99532    1.000
    N5459    N        0.78972    0.72940    0.04300    1.000
    Si5460   Si       0.79728    0.75564    0.07610    1.000
    N5461    N        0.84162    0.75490    0.07877    1.000
    N5462    N        0.77764    0.74354    0.11321    1.000
    Si5463   Si       0.78878    0.75833    0.00934    1.000
    N5464    N        0.83354    0.76679    0.00929    1.000
    Si5465   Si       0.86039    0.71950    0.09492    1.000
    Si5466   Si       0.97569    0.75511    0.01555    1.000
    N5467    N        0.94312    0.74677    0.08898    1.000
    Si5468   Si       0.92071    0.73532    0.05561    1.000
    N5469    N        0.94867    0.72209    0.02290    1.000
    N5470    N        0.89816    0.76888    0.03908    1.000
    Si5471   Si       0.96729    0.71584    0.10890    1.000
    Si5472   Si       0.74389    0.75921    0.13418    1.000
    Si5473   Si       0.76799    0.76081    0.20200    1.000
    Si5474   Si       0.84337    0.76304    0.17183    1.000
    N5475    N        0.82868    0.72353    0.15476    1.000
    N5476    N        0.75860    0.72042    0.20670    1.000
    N5477    N        0.94211    0.74437    0.21335    1.000
    Si5478   Si       0.95980    0.71603    0.24186    1.000
    Si5479   Si       0.90217    0.76215    0.22009    1.000
    N5480    N        0.87762    0.74535    0.19144    1.000
    N5481    N        0.88220    0.74301    0.12860    1.000
    Si5482   Si       0.95693    0.75375    0.17270    1.000
    N5483    N        0.76663    0.75424    0.29579    1.000
    Si5484   Si       0.83646    0.76233    0.35830    1.000
    N5485    N        0.79869    0.73903    0.35886    1.000
    Si5486   Si       0.80081    0.73631    0.31617    1.000
    N5487    N        0.83670    0.76321    0.31504    1.000
    N5488    N        0.92263    0.75096    0.30889    1.000
    Si5489   Si       0.96342    0.73538    0.31133    1.000
    N5490    N        0.88051    0.75524    0.25935    1.000
    Si5491   Si       0.89506    0.72347    0.28510    1.000
    N5492    N        0.98693    0.74027    0.26949    1.000
    N5493    N        0.98408    0.75741    0.34279    1.000
    Si5494   Si       0.84733    0.74733    0.47473    1.000
    N5495    N        0.80141    0.72180    0.42314    1.000
    Si5496   Si       0.80176    0.76749    0.41762    1.000
    Si5497   Si       0.74958    0.74360    0.45513    1.000
    N5498    N        0.75876    0.77554    0.42209    1.000
    N5499    N        0.88204    0.75672    0.44999    1.000
    N5500    N        0.86803    0.74140    0.37976    1.000
    Si5501   Si       0.89432    0.75928    0.40917    1.000
    Si5502   Si       0.97463    0.74894    0.38468    1.000
    N5503    N        0.93540    0.76151    0.39606    1.000
    Si5504   Si       0.90201    0.77096    0.48740    1.000
    N5505    N        0.85097    0.74148    0.57804    1.000
    N5506    N        0.79636    0.75448    0.53681    1.000
    N5507    N        0.86542    0.76571    0.51256    1.000
    Si5508   Si       0.83706    0.76809    0.54536    1.000
    Si5509   Si       0.97010    0.75854    0.50940    1.000
    N5510    N        0.93127    0.74304    0.49764    1.000
    Si5511   Si       0.80721    0.75664    0.70942    1.000
    Si5512   Si       0.81318    0.72508    0.64629    1.000
    N5513    N        0.84845    0.76562    0.70244    1.000
    N5514    N        0.81445    0.76674    0.63471    1.000
    N5515    N        0.79720    0.72008    0.68622    1.000
    Si5516   Si       0.92218    0.76754    0.62888    1.000
    N5517    N        0.91201    0.73942    0.70338    1.000
    N5518    N        0.92962    0.72522    0.63271    1.000
    Si5519   Si       0.87540    0.74056    0.72506    1.000
    Si5520   Si       0.76465    0.74170    0.76755    1.000
    Si5521   Si       0.84614    0.74247    0.83211    1.000
    Si5522   Si       0.74463    0.75605    0.84013    1.000
    N5523    N        0.82532    0.75281    0.86872    1.000
    N5524    N        0.76320    0.72539    0.86695    1.000
    N5525    N        0.80173    0.75937    0.75404    1.000
    N5526    N        0.93564    0.72474    0.95608    1.000
    N5527    N        0.86941    0.75114    0.76673    1.000
    Si5528   Si       0.95213    0.76762    0.77445    1.000
    N5529    N        0.88897    0.75542    0.83871    1.000
    N5530    N        0.93173    0.73239    0.79036    1.000
    Si5531   Si       0.89847    0.75928    0.79689    1.000
    Si5532   Si       0.91773    0.76257    0.87050    1.000
    N5533    N        0.76350    0.73656    0.97920    1.000
    Si5534   Si       0.79600    0.73669    0.89542    1.000
    Si5535   Si       0.85683    0.76689    0.97319    1.000
    Si5536   Si       0.76326    0.76975    0.95321    1.000
    N5537    N        0.79007    0.77237    0.91951    1.000
    N5538    N        0.86380    0.72794    0.95537    1.000
    N5539    N        0.94194    0.72576    0.87481    1.000
    Si5540   Si       0.98361    0.72020    0.87604    1.000
    Si5541   Si       0.97230    0.74246    0.94245    1.000
    Si5542   Si       0.90147    0.73122    0.93214    1.000
    N5543    N        0.90215    0.76802    0.91048    1.000
    N5544    N        0.78450    0.79540    0.06087    1.000
    N5545    N        0.84911    0.81821    0.05573    1.000
    Si5546   Si       0.85496    0.77658    0.04460    1.000
    Si5547   Si       0.74247    0.80474    0.06578    1.000
    N5548    N        0.97542    0.81095    0.09871    1.000
    N5549    N        0.90480    0.80796    0.10024    1.000
    Si5550   Si       0.91546    0.80171    0.01355    1.000
    Si5551   Si       0.94278    0.78639    0.10647    1.000
    N5552    N        0.95884    0.79817    0.01412    1.000
    Si5553   Si       0.98531    0.83201    0.01446    1.000
    N5554    N        0.74748    0.78361    0.17078    1.000
    Si5555   Si       0.81141    0.81298    0.21918    1.000
    N5556    N        0.75360    0.78251    0.23585    1.000
    Si5557   Si       0.74060    0.82367    0.18597    1.000
    N5558    N        0.85843    0.80172    0.15794    1.000
    N5559    N        0.81041    0.77425    0.19726    1.000
    Si5560   Si       0.89308    0.78445    0.13569    1.000
    Si5561   Si       0.93141    0.82646    0.23488    1.000
    N5562    N        0.93353    0.78015    0.15018    1.000
    Si5563   Si       0.87523    0.83087    0.18747    1.000
    N5564    N        0.90063    0.80551    0.21343    1.000
    Si5565   Si       0.80735    0.83212    0.05158    1.000
    Si5566   Si       0.88799    0.83340    0.07026    1.000
    N5567    N        0.81621    0.79688    0.25971    1.000
    Si5568   Si       0.77639    0.78959    0.27145    1.000
    Si5569   Si       0.85262    0.78373    0.28125    1.000
    N5570    N        0.75178    0.82688    0.27892    1.000
    N5571    N        0.94895    0.80329    0.26821    1.000
    N5572    N        0.88385    0.81099    0.29741    1.000
    N5573    N        0.93404    0.81558    0.34298    1.000
    Si5574   Si       0.92353    0.79378    0.30359    1.000
    Si5575   Si       0.98621    0.78351    0.26011    1.000
    Si5576   Si       0.85376    0.82261    0.38762    1.000
    N5577    N        0.82359    0.79251    0.38859    1.000
    Si5578   Si       0.80695    0.81690    0.47089    1.000
    N5579    N        0.81593    0.77536    0.45963    1.000
    Si5580   Si       0.98641    0.79831    0.43723    1.000
    N5581    N        0.98450    0.77692    0.47336    1.000
    N5582    N        0.88859    0.80260    0.40160    1.000
    N5583    N        0.95751    0.82074    0.41443    1.000
    Si5584   Si       0.92950    0.80408    0.38632    1.000
    N5585    N        0.84083    0.80269    0.57459    1.000
    N5586    N        0.78701    0.81422    0.51053    1.000
    Si5587   Si       0.76537    0.78021    0.52441    1.000
    Si5588   Si       0.84659    0.77449    0.60706    1.000
    Si5589   Si       0.96376    0.80809    0.57093    1.000
    N5590    N        0.98108    0.79309    0.53352    1.000
    N5591    N        0.93542    0.78305    0.59021    1.000
    N5592    N        0.91614    0.81206    0.49338    1.000
    Si5593   Si       0.74372    0.78588    0.71121    1.000
    N5594    N        0.78368    0.78960    0.69445    1.000
    Si5595   Si       0.80022    0.80319    0.65685    1.000
    N5596    N        0.84036    0.82293    0.65863    1.000
    Si5597   Si       0.86880    0.79169    0.67478    1.000
    N5598    N        0.97323    0.82918    0.69434    1.000
    N5599    N        0.90138    0.80744    0.69981    1.000
    N5600    N        0.95172    0.78506    0.65540    1.000
    Si5601   Si       0.94402    0.79593    0.69764    1.000
    N5602    N        0.96066    0.78435    0.73529    1.000
    Si5603   Si       0.88264    0.83072    0.73224    1.000
    N5604    N        0.88027    0.77642    0.63649    1.000
    Si5605   Si       0.98945    0.78398    0.63411    1.000
    Si5606   Si       0.81206    0.79126    0.85065    1.000
    N5607    N        0.76868    0.79280    0.84467    1.000
    N5608    N        0.83378    0.78222    0.81501    1.000
    Si5609   Si       0.83626    0.78052    0.77156    1.000
    N5610    N        0.84825    0.81898    0.75712    1.000
    Si5611   Si       0.74442    0.82912    0.84485    1.000
    N5612    N        0.92003    0.79527    0.78292    1.000
    Si5613   Si       0.96162    0.81239    0.83295    1.000
    N5614    N        0.97767    0.77914    0.80910    1.000
    N5615    N        0.94421    0.79657    0.86885    1.000
    N5616    N        0.82072    0.82437    0.87906    1.000
    N5617    N        0.84873    0.79921    0.93997    1.000
    N5618    N        0.77725    0.79528    0.98628    1.000
    Si5619   Si       0.81329    0.80957    0.91905    1.000
    N5620    N        0.97580    0.78626    0.92842    1.000
    Si5621   Si       0.95413    0.81682    0.90569    1.000
    N5622    N        0.91833    0.83062    0.92718    1.000
    Si5623   Si       0.89262    0.79928    0.93726    1.000
    N5624    N        0.89513    0.78889    0.97923    1.000
    N5625    N        0.80477    0.85138    0.01362    1.000
    N5626    N        0.80700    0.87300    0.07089    1.000
    Si5627   Si       0.76746    0.88087    0.09290    1.000
    N5628    N        0.74465    0.84546    0.08427    1.000
    N5629    N        0.89653    0.86784    0.17301    1.000
    N5630    N        0.91150    0.84004    0.03501    1.000
    Si5631   Si       0.93394    0.87709    0.03557    1.000
    Si5632   Si       0.98042    0.85648    0.10091    1.000
    N5633    N        0.88147    0.87305    0.08565    1.000
    N5634    N        0.95489    0.87784    0.07507    1.000
    N5635    N        0.96892    0.87167    0.00907    1.000
    N5636    N        0.96587    0.86906    0.13891    1.000
    Si5637   Si       0.78012    0.88070    0.21509    1.000
    N5638    N        0.77580    0.83800    0.20799    1.000
    N5639    N        0.84424    0.83974    0.21756    1.000
    Si5640   Si       0.94003    0.87046    0.17504    1.000
    N5641    N        0.95795    0.84558    0.20715    1.000
    Si5642   Si       0.76004    0.86809    0.28587    1.000
    N5643    N        0.85428    0.86737    0.28905    1.000
    N5644    N        0.78864    0.87995    0.31791    1.000
    N5645    N        0.79131    0.88214    0.25631    1.000
    N5646    N        0.87100    0.84818    0.35355    1.000
    N5647    N        0.92271    0.87586    0.31294    1.000
    Si5648   Si       0.95431    0.85450    0.33693    1.000
    Si5649   Si       0.88658    0.85001    0.31398    1.000
    N5650    N        0.90890    0.86140    0.25011    1.000
    Si5651   Si       0.86536    0.86227    0.24735    1.000
    Si5652   Si       0.84471    0.88401    0.44790    1.000
    N5653    N        0.77781    0.84085    0.44705    1.000
    N5654    N        0.83312    0.85706    0.40255    1.000
    N5655    N        0.83971    0.84509    0.47153    1.000
    Si5656   Si       0.79277    0.86467    0.41344    1.000
    Si5657   Si       0.74244    0.85873    0.46822    1.000
    N5658    N        0.76589    0.88630    0.38691    1.000
    Si5659   Si       0.86309    0.88221    0.38218    1.000
    N5660    N        0.95712    0.88045    0.37220    1.000
    N5661    N        0.97701    0.88764    0.44128    1.000
    Si5662   Si       0.97440    0.86110    0.40796    1.000
    N5663    N        0.93676    0.87789    0.50186    1.000
    N5664    N        0.82387    0.86019    0.54222    1.000
    Si5665   Si       0.78362    0.85876    0.60724    1.000
    Si5666   Si       0.78200    0.84881    0.53416    1.000
    Si5667   Si       0.85301    0.86101    0.51013    1.000
    N5668    N        0.75493    0.86877    0.50846    1.000
    Si5669   Si       0.85207    0.84459    0.57466    1.000
    N5670    N        0.82687    0.86550    0.60947    1.000
    N5671    N        0.76486    0.84231    0.57234    1.000
    N5672    N        0.88322    0.85426    0.54141    1.000
    N5673    N        0.94908    0.84832    0.56040    1.000
    Si5674   Si       0.92203    0.86197    0.59181    1.000
    Si5675   Si       0.92173    0.84349    0.52379    1.000
    N5676    N        0.88606    0.84191    0.60486    1.000
    Si5677   Si       0.98515    0.87430    0.54851    1.000
    Si5678   Si       0.93084    0.89001    0.72433    1.000
    Si5679   Si       0.74591    0.85337    0.73306    1.000
    Si5680   Si       0.86070    0.85567    0.63774    1.000
    N5681    N        0.85687    0.86130    0.71156    1.000
    N5682    N        0.78895    0.85524    0.73521    1.000
    Si5683   Si       0.82923    0.85711    0.74573    1.000
    N5684    N        0.77146    0.82948    0.63761    1.000
    N5685    N        0.88211    0.88796    0.65686    1.000
    N5686    N        0.94632    0.86757    0.62834    1.000
    Si5687   Si       0.97013    0.86030    0.66233    1.000
    N5688    N        0.91500    0.85455    0.74559    1.000
    N5689    N        0.77135    0.86242    0.85077    1.000
    Si5690   Si       0.81528    0.86137    0.85592    1.000
    N5691    N        0.85148    0.86833    0.83359    1.000
    N5692    N        0.97493    0.83954    0.77423    1.000
    Si5693   Si       0.89731    0.87186    0.83943    1.000
    N5694    N        0.92916    0.84647    0.82223    1.000
    Si5695   Si       0.93190    0.83640    0.78065    1.000
    N5696    N        0.79700    0.84616    0.94158    1.000
    Si5697   Si       0.79986    0.88664    0.92702    1.000
    Si5698   Si       0.77889    0.83806    0.97992    1.000
    N5699    N        0.74063    0.85211    0.98499    1.000
    N5700    N        0.97572    0.85408    0.90304    1.000
    N5701    N        0.89824    0.88019    0.88097    1.000
    N5702    N        0.86960    0.88425    0.93852    1.000
    Si5703   Si       0.90740    0.87030    0.92290    1.000
    N5704    N        0.77845    0.91866    0.01549    1.000
    N5705    N        0.85042    0.90359    0.01531    1.000
    N5706    N        0.84647    0.93271    0.07879    1.000
    Si5707   Si       0.74819    0.93630    0.03858    1.000
    N5708    N        0.74755    0.91614    0.07805    1.000
    Si5709   Si       0.81154    0.89105    0.02938    1.000
    Si5710   Si       0.84238    0.88882    0.09269    1.000
    Si5711   Si       0.87143    0.93003    0.04292    1.000
    N5712    N        0.91271    0.91401    0.04591    1.000
    Si5713   Si       0.91586    0.89915    0.08701    1.000
    Si5714   Si       0.84113    0.92639    0.20643    1.000
    Si5715   Si       0.80912    0.91276    0.15046    1.000
    N5716    N        0.80859    0.90416    0.19163    1.000
    N5717    N        0.84509    0.89389    0.13441    1.000
    N5718    N        0.86038    0.90360    0.23808    1.000
    N5719    N        0.77350    0.89165    0.13439    1.000
    Si5720   Si       0.98173    0.90882    0.14976    1.000
    Si5721   Si       0.88362    0.90441    0.15227    1.000
    N5722    N        0.87222    0.93844    0.17888    1.000
    N5723    N        0.95441    0.91168    0.18463    1.000
    N5724    N        0.91163    0.92219    0.12271    1.000
    Si5725   Si       0.95762    0.93719    0.21930    1.000
    N5726    N        0.97668    0.94455    0.12473    1.000
    N5727    N        0.74094    0.89795    0.20511    1.000
    N5728    N        0.82747    0.93335    0.29584    1.000
    Si5729   Si       0.77652    0.90659    0.34973    1.000
    Si5730   Si       0.85739    0.93706    0.26538    1.000
    Si5731   Si       0.81869    0.89218    0.29013    1.000
    N5732    N        0.74355    0.92783    0.32825    1.000
    N5733    N        0.87364    0.91566    0.35463    1.000
    N5734    N        0.96065    0.91243    0.25525    1.000
    N5735    N        0.90062    0.92882    0.28707    1.000
    Si5736   Si       0.90617    0.91836    0.32771    1.000
    N5737    N        0.93990    0.94051    0.33941    1.000
    Si5738   Si       0.92467    0.89482    0.27299    1.000
    N5739    N        0.80763    0.93280    0.37283    1.000
    N5740    N        0.80519    0.90238    0.43772    1.000
    Si5741   Si       0.78522    0.92537    0.40795    1.000
    N5742    N        0.85940    0.89912    0.48873    1.000
    N5743    N        0.94169    0.93765    0.41160    1.000
    N5744    N        0.95509    0.94211    0.47849    1.000
    Si5745   Si       0.96144    0.92467    0.37342    1.000
    N5746    N        0.87793    0.89663    0.42007    1.000
    Si5747   Si       0.97367    0.93185    0.44184    1.000
    Si5748   Si       0.89876    0.93797    0.41878    1.000
    N5749    N        0.75591    0.95185    0.25686    1.000
    N5750    N        0.84091    0.92175    0.56899    1.000
    Si5751   Si       0.81777    0.91127    0.60668    1.000
    N5752    N        0.77563    0.90208    0.61167    1.000
    N5753    N        0.77893    0.93660    0.52708    1.000
    Si5754   Si       0.74651    0.91049    0.51955    1.000
    Si5755   Si       0.88555    0.92804    0.56774    1.000
    Si5756   Si       0.94151    0.91789    0.51335    1.000
    N5757    N        0.90377    0.93195    0.52867    1.000
    N5758    N        0.97669    0.91475    0.54056    1.000
    N5759    N        0.90804    0.90301    0.59273    1.000
    Si5760   Si       0.87543    0.93800    0.49697    1.000
    N5761    N        0.83588    0.92686    0.70058    1.000
    N5762    N        0.82900    0.94484    0.63250    1.000
    N5763    N        0.95007    0.89183    0.68574    1.000
    N5764    N        0.93512    0.94215    0.64656    1.000
    Si5765   Si       0.97014    0.93010    0.67282    1.000
    Si5766   Si       0.92007    0.90086    0.63902    1.000
    N5767    N        0.89763    0.91887    0.72417    1.000
    Si5768   Si       0.86900    0.89914    0.69539    1.000
    N5769    N        0.77638    0.93195    0.85639    1.000
    N5770    N        0.83882    0.94022    0.82203    1.000
    Si5771   Si       0.85619    0.90391    0.80650    1.000
    Si5772   Si       0.74691    0.92381    0.76230    1.000
    Si5773   Si       0.82194    0.93846    0.86469    1.000
    N5774    N        0.78863    0.93966    0.75545    1.000
    N5775    N        0.84024    0.89393    0.76792    1.000
    Si5776   Si       0.75568    0.89631    0.87067    1.000
    Si5777   Si       0.93691    0.91906    0.79149    1.000
    N5778    N        0.97145    0.90686    0.81408    1.000
    N5779    N        0.89943    0.90600    0.80845    1.000
    N5780    N        0.95661    0.90483    0.75365    1.000
    N5781    N        0.81337    0.91232    0.95782    1.000
    Si5782   Si       0.85651    0.90775    0.97169    1.000
    N5783    N        0.75970    0.90072    0.91677    1.000
    Si5784   Si       0.79113    0.94163    0.98023    1.000
    Si5785   Si       0.86245    0.89878    0.89780    1.000
    N5786    N        0.82124    0.89114    0.88728    1.000
    N5787    N        0.86190    0.94072    0.88442    1.000
    Si5788   Si       0.92144    0.94092    0.95220    1.000
    N5789    N        0.93394    0.90088    0.93926    1.000
    N5790    N        0.98163    0.91930    0.88626    1.000
    N5791    N        0.88051    0.94459    0.96870    1.000
    Si5792   Si       0.97403    0.89498    0.92015    1.000
    Si5793   Si       0.82935    0.92877    0.74463    1.000
    Si5794   Si       0.83414    0.96743    0.10583    1.000
    N5795    N        0.76302    0.97741    0.04027    1.000
    N5796    N        0.81128    0.99602    0.08438    1.000
    Si5797   Si       0.76758    0.99780    0.07869    1.000
    N5798    N        0.74927    0.97659    0.11157    1.000
    Si5799   Si       0.78804    0.00193    0.01409    1.000
    N5800    N        0.87685    0.97204    0.02685    1.000
    N5801    N        0.92534    0.99136    0.09623    1.000
    Si5802   Si       0.78331    0.96688    0.22423    1.000
    N5803    N        0.85889    0.00026    0.12493    1.000
    Si5804   Si       0.77742    0.97910    0.14664    1.000
    N5805    N        0.76532    0.96122    0.18458    1.000
    N5806    N        0.81050    0.95443    0.13762    1.000
    Si5807   Si       0.84199    0.00264    0.23835    1.000
    N5808    N        0.82591    0.95499    0.23344    1.000
    N5809    N        0.98593    0.96876    0.20310    1.000
    Si5810   Si       0.89787    0.97087    0.19402    1.000
    N5811    N        0.93007    0.97899    0.16389    1.000
    N5812    N        0.92134    0.95887    0.22739    1.000
    Si5813   Si       0.93376    0.95780    0.12553    1.000
    Si5814   Si       0.96951    0.99569    0.17459    1.000
    N5815    N        0.87526    0.00356    0.20776    1.000
    N5816    N        0.79955    0.00747    0.22031    1.000
    Si5817   Si       0.82853    0.98036    0.30126    1.000
    N5818    N        0.84739    0.98465    0.34094    1.000
    N5819    N        0.78676    0.98350    0.31710    1.000
    Si5820   Si       0.75509    0.96006    0.30141    1.000
    N5821    N        0.91963    0.00007    0.42647    1.000
    N5822    N        0.86707    0.97973    0.27210    1.000
    Si5823   Si       0.95882    0.97848    0.32458    1.000
    N5824    N        0.93230    0.99420    0.29518    1.000
    Si5825   Si       0.90976    0.96862    0.26852    1.000
    Si5826   Si       0.74707    0.99397    0.42411    1.000
    N5827    N        0.74893    0.99134    0.37659    1.000
    N5828    N        0.75620    0.95068    0.42509    1.000
    Si5829   Si       0.93283    0.97620    0.46326    1.000
    N5830    N        0.86760    0.96352    0.40150    1.000
    Si5831   Si       0.84711    0.94940    0.36653    1.000
    N5832    N        0.89532    0.95054    0.46054    1.000
    Si5833   Si       0.87624    0.00177    0.42385    1.000
    N5834    N        0.95772    0.01186    0.35593    1.000
    N5835    N        0.81212    0.97742    0.57401    1.000
    Si5836   Si       0.84802    0.97480    0.60436    1.000
    N5837    N        0.84486    0.96211    0.51210    1.000
    Si5838   Si       0.75720    0.97207    0.50491    1.000
    Si5839   Si       0.81700    0.94856    0.54367    1.000
    N5840    N        0.79183    0.99962    0.50031    1.000
    Si5841   Si       0.83563    0.00410    0.49904    1.000
    N5842    N        0.88506    0.97046    0.58094    1.000
    N5843    N        0.95735    0.97848    0.55847    1.000
    Si5844   Si       0.92195    0.99319    0.57484    1.000
    Si5845   Si       0.97243    0.00450    0.52682    1.000
    N5846    N        0.89522    0.99174    0.72279    1.000
    Si5847   Si       0.92057    0.98390    0.64731    1.000
    Si5848   Si       0.85249    0.99504    0.72875    1.000
    N5849    N        0.78083    0.96766    0.67880    1.000
    N5850    N        0.83344    0.99680    0.69032    1.000
    Si5851   Si       0.82481    0.95702    0.67273    1.000
    Si5852   Si       0.79014    0.00770    0.69632    1.000
    N5853    N        0.97385    0.95123    0.71016    1.000
    N5854    N        0.94773    0.00350    0.67520    1.000
    Si5855   Si       0.97854    0.99443    0.70724    1.000
    N5856    N        0.87787    0.98798    0.64509    1.000
    Si5857   Si       0.89944    0.95426    0.74776    1.000
    N5858    N        0.94418    0.00667    0.49198    1.000
    N5859    N        0.80597    0.99462    0.79777    1.000
    Si5860   Si       0.77617    0.97961    0.77002    1.000
    Si5861   Si       0.84582    0.97650    0.80042    1.000
    N5862    N        0.85450    0.96104    0.75820    1.000
    N5863    N        0.74206    0.96083    0.78886    1.000
    N5864    N        0.75966    0.00747    0.84709    1.000
    Si5865   Si       0.76503    0.97185    0.87061    1.000
    Si5866   Si       0.91968    0.98778    0.81590    1.000
    N5867    N        0.92626    0.96611    0.85368    1.000
    N5868    N        0.92872    0.96105    0.78202    1.000
    N5869    N        0.87959    0.00352    0.80604    1.000
    Si5870   Si       0.96820    0.95843    0.86843    1.000
    Si5871   Si       0.89355    0.96906    0.88455    1.000
    N5872    N        0.80683    0.97732    0.88417    1.000
    Si5873   Si       0.86139    0.97724    0.98789    1.000
    N5874    N        0.75682    0.95939    0.96261    1.000
    N5875    N        0.81670    0.97631    0.99429    1.000
    N5876    N        0.98089    0.98408    0.90264    1.000
    N5877    N        0.95612    0.95972    0.96842    1.000
    Si5878   Si       0.95397    0.98849    0.93418    1.000
    N5879    N        0.91863    0.96846    0.91847    1.000
