# CIF file generated by openbabel 3.1.1, see https://openbabel.org
data_I
_chemical_name_common '3.01-72.aims'
_cell_length_a 39.9133
_cell_length_b 39.9133
_cell_length_c 39.9133
_cell_angle_alpha 90
_cell_angle_beta 90
_cell_angle_gamma 90
loop_
    _atom_site_label
    _atom_site_type_symbol
    _atom_site_fract_x
    _atom_site_fract_y
    _atom_site_fract_z
    _atom_site_occupancy
    Si0      Si       0.00456    0.10136    0.07431    1.000
    N1       N        0.00850    0.05079    0.09207    1.000
    N2       N        0.00191    0.10895    0.11826    1.000
    Si3      Si       0.04247    0.12904    0.02813    1.000
    N4       N        0.01878    0.17639    0.12475    1.000
    Si5      Si       0.00921    0.25092    0.01748    1.000
    N6       N        0.00841    0.14258    0.05761    1.000
    N7       N        0.01583    0.20663    0.01991    1.000
    Si8      Si       0.98812    0.17670    0.04299    1.000
    Si9      Si       0.99407    0.06696    0.13139    1.000
    N10      N        0.01254    0.01290    0.22834    1.000
    Si11     Si       0.99889    0.12314    0.21648    1.000
    N12      N        0.01276    0.04584    0.16222    1.000
    Si13     Si       0.01902    0.04884    0.20511    1.000
    N14      N        0.03968    0.12229    0.23407    1.000
    N15      N        0.98986    0.08161    0.21546    1.000
    Si16     Si       0.01650    0.13985    0.14640    1.000
    Si17     Si       0.98942    0.23781    0.22596    1.000
    N18      N        0.98918    0.01494    0.03411    1.000
    N19      N        0.02615    0.25025    0.24418    1.000
    N20      N        0.02974    0.08467    0.28888    1.000
    Si21     Si       0.01333    0.09200    0.32688    1.000
    N22      N        0.99733    0.02719    0.35356    1.000
    N23      N        0.04196    0.08232    0.36370    1.000
    Si24     Si       0.04459    0.12795    0.36945    1.000
    N25      N        0.01575    0.13524    0.33697    1.000
    N26      N        0.02438    0.18472    0.26803    1.000
    Si27     Si       0.01749    0.23925    0.35094    1.000
    N28      N        0.03578    0.23540    0.31116    1.000
    Si29     Si       0.01229    0.19340    0.49431    1.000
    N30      N        0.98947    0.20456    0.36151    1.000
    N31      N        0.02625    0.16818    0.46289    1.000
    N32      N        0.01381    0.09642    0.46491    1.000
    Si33     Si       0.01122    0.05777    0.38452    1.000
    Si34     Si       0.03530    0.05971    0.45524    1.000
    N35      N        0.02050    0.03648    0.42055    1.000
    Si36     Si       0.00583    0.13296    0.44399    1.000
    N37      N        0.03283    0.13565    0.40907    1.000
    N38      N        0.04558    0.25182    0.38337    1.000
    N39      N        0.00822    0.09615    0.53731    1.000
    N40      N        0.03586    0.05333    0.57427    1.000
    Si41     Si       0.99514    0.07060    0.57446    1.000
    Si42     Si       0.04545    0.07146    0.53374    1.000
    Si43     Si       0.99452    0.08072    0.49928    1.000
    N44      N        0.98860    0.15459    0.58553    1.000
    N45      N        0.03649    0.20399    0.58980    1.000
    Si46     Si       0.01039    0.13955    0.54792    1.000
    Si47     Si       0.01828    0.24236    0.58389    1.000
    N48      N        0.99316    0.17385    0.52799    1.000
    N49      N        0.04664    0.21322    0.51487    1.000
    Si50     Si       0.04171    0.01112    0.67306    1.000
    N51      N        0.02137    0.04562    0.68857    1.000
    Si52     Si       0.02998    0.08015    0.71360    1.000
    N53      N        0.99211    0.09707    0.73072    1.000
    N54      N        0.99420    0.13648    0.66500    1.000
    N55      N        0.01956    0.16888    0.72199    1.000
    N56      N        0.00921    0.23776    0.72013    1.000
    Si57     Si       0.03151    0.15502    0.67995    1.000
    Si58     Si       0.04031    0.23754    0.69062    1.000
    N59      N        0.03346    0.20064    0.66697    1.000
    N60      N        0.02381    0.04556    0.49594    1.000
    N61      N        0.00239    0.09653    0.79937    1.000
    Si62     Si       0.04302    0.09891    0.78652    1.000
    N63      N        0.04293    0.03286    0.80841    1.000
    N64      N        0.99079    0.02219    0.85343    1.000
    N65      N        0.01051    0.08988    0.87118    1.000
    N66      N        0.99981    0.24685    0.78716    1.000
    N67      N        0.02584    0.19667    0.82778    1.000
    Si68     Si       0.03807    0.22394    0.79488    1.000
    N69      N        0.01625    0.14525    0.99442    1.000
    Si70     Si       0.02235    0.04813    0.87440    1.000
    Si71     Si       0.00727    0.12632    0.89456    1.000
    N72      N        0.01085    0.03428    0.91349    1.000
    Si73     Si       0.02704    0.06282    0.94303    1.000
    N74      N        0.02120    0.10510    0.93609    1.000
    N75      N        0.99943    0.04916    0.97631    1.000
    Si76     Si       0.00451    0.00749    0.99369    1.000
    Si77     Si       0.01965    0.18499    0.97956    1.000
    Si78     Si       0.99201    0.13420    0.95751    1.000
    Si79     Si       0.99853    0.24901    0.89470    1.000
    N80      N        0.99475    0.20633    0.88585    1.000
    N81      N        0.04016    0.15631    0.88908    1.000
    N82      N        0.01747    0.33666    0.04731    1.000
    Si83     Si       0.02516    0.29640    0.05665    1.000
    N84      N        0.03920    0.28768    0.09668    1.000
    N85      N        0.04309    0.27960    0.01802    1.000
    N86      N        0.00651    0.44600    0.22154    1.000
    N87      N        0.03334    0.39090    0.10721    1.000
    Si88     Si       0.01730    0.40913    0.07285    1.000
    N89      N        0.02572    0.45142    0.08208    1.000
    Si90     Si       0.01321    0.49493    0.08826    1.000
    N91      N        0.04130    0.39773    0.03730    1.000
    Si92     Si       0.00063    0.30421    0.20165    1.000
    N93      N        0.01273    0.28293    0.16584    1.000
    Si94     Si       0.02537    0.30823    0.13129    1.000
    N95      N        0.03583    0.31615    0.22420    1.000
    Si96     Si       0.04469    0.35500    0.24471    1.000
    N97      N        0.00864    0.37894    0.24127    1.000
    N98      N        0.98927    0.33096    0.12947    1.000
    N99      N        0.99892    0.45446    0.14609    1.000
    Si100    Si       0.01382    0.48692    0.22939    1.000
    Si101    Si       0.02396    0.42016    0.13616    1.000
    N102     N        0.00071    0.39823    0.16796    1.000
    Si103    Si       0.00222    0.49670    0.15589    1.000
    N104     N        0.02972    0.49711    0.18888    1.000
    N105     N        0.00796    0.30315    0.28399    1.000
    Si106    Si       0.00875    0.30878    0.32665    1.000
    Si107    Si       0.04034    0.28762    0.25685    1.000
    N108     N        0.00000    0.34820    0.34263    1.000
    Si109    Si       0.03054    0.37051    0.36187    1.000
    N110     N        0.99249    0.27607    0.35036    1.000
    Si111    Si       0.01595    0.43772    0.32785    1.000
    Si112    Si       0.00995    0.42054    0.25636    1.000
    N113     N        0.04285    0.46883    0.33441    1.000
    N114     N        0.03780    0.40145    0.33146    1.000
    N115     N        0.99163    0.43387    0.29120    1.000
    N116     N        0.99399    0.44411    0.36520    1.000
    N117     N        0.02692    0.30497    0.41356    1.000
    Si118    Si       0.03162    0.37089    0.47489    1.000
    N119     N        0.99716    0.35408    0.45323    1.000
    N120     N        0.04836    0.49634    0.25677    1.000
    Si121    Si       0.02389    0.26201    0.42043    1.000
    N122     N        0.02772    0.39506    0.39884    1.000
    Si123    Si       0.00110    0.42806    0.40719    1.000
    N124     N        0.01154    0.41159    0.47554    1.000
    N125     N        0.02594    0.46353    0.41535    1.000
    Si126    Si       0.02269    0.48202    0.37460    1.000
    Si127    Si       0.02936    0.48114    0.45587    1.000
    N128     N        0.05365    0.46317    0.48979    1.000
    N129     N        0.02482    0.33468    0.56890    1.000
    Si130    Si       0.00575    0.36888    0.55053    1.000
    N131     N        0.00034    0.28484    0.52056    1.000
    N132     N        0.03484    0.33459    0.50110    1.000
    Si133    Si       0.04171    0.30157    0.53700    1.000
    Si134    Si       0.99090    0.32937    0.59651    1.000
    Si135    Si       0.02653    0.39493    0.73498    1.000
    Si136    Si       0.02632    0.43523    0.50902    1.000
    N137     N        0.03464    0.39778    0.53351    1.000
    Si138    Si       0.02723    0.45876    0.57339    1.000
    N139     N        0.02020    0.42764    0.60300    1.000
    N140     N        0.01012    0.49774    0.58471    1.000
    N141     N        0.99960    0.45822    0.53623    1.000
    Si142    Si       0.00070    0.35954    0.67081    1.000
    N143     N        0.99893    0.32594    0.63892    1.000
    Si144    Si       0.99676    0.28404    0.65216    1.000
    N145     N        0.02867    0.35639    0.71019    1.000
    N146     N        0.03841    0.27373    0.66675    1.000
    N147     N        0.03731    0.38082    0.65234    1.000
    Si148    Si       0.03865    0.47003    0.66388    1.000
    N149     N        0.99618    0.45772    0.65545    1.000
    N150     N        0.03794    0.48124    0.70688    1.000
    N151     N        0.99641    0.25848    0.61726    1.000
    Si152    Si       0.99162    0.32168    0.49695    1.000
    Si153    Si       0.01571    0.28601    0.81628    1.000
    N154     N        0.00816    0.37163    0.83803    1.000
    N155     N        0.01875    0.27286    0.86033    1.000
    N156     N        0.04022    0.29429    0.74857    1.000
    Si157    Si       0.00643    0.26841    0.75060    1.000
    Si158    Si       0.04611    0.35050    0.84728    1.000
    N159     N        0.04407    0.39081    0.77528    1.000
    Si160    Si       0.02267    0.40341    0.81154    1.000
    N161     N        0.04094    0.43495    0.83901    1.000
    N162     N        0.01369    0.27915    0.92116    1.000
    Si163    Si       0.01694    0.30844    0.88963    1.000
    N164     N        0.01724    0.31881    0.97504    1.000
    Si165    Si       0.99154    0.28856    0.95535    1.000
    N166     N        0.04532    0.48912    0.88737    1.000
    Si167    Si       0.00690    0.41541    0.94260    1.000
    N168     N        0.03269    0.43047    0.97191    1.000
    Si169    Si       0.02317    0.45324    0.87340    1.000
    Si170    Si       0.03171    0.47212    0.98781    1.000
    N171     N        0.04231    0.50663    0.96403    1.000
    N172     N        0.03042    0.42560    0.90843    1.000
    N173     N        0.04766    0.33806    0.88927    1.000
    N174     N        0.99155    0.37475    0.94310    1.000
    Si175    Si       0.02397    0.54709    0.04634    1.000
    N176     N        0.00822    0.55360    0.00415    1.000
    N177     N        0.04550    0.62104    0.09909    1.000
    N178     N        0.04751    0.51126    0.06454    1.000
    N179     N        0.99009    0.55407    0.07333    1.000
    N180     N        0.00096    0.63629    0.04889    1.000
    Si181    Si       0.00928    0.64084    0.09182    1.000
    Si182    Si       0.03429    0.64580    0.02313    1.000
    N183     N        0.03326    0.69040    0.01726    1.000
    N184     N        0.01299    0.68122    0.10826    1.000
    Si185    Si       0.01019    0.64568    0.20062    1.000
    N186     N        0.01929    0.68543    0.19120    1.000
    Si187    Si       0.00352    0.71311    0.99614    1.000
    N188     N        0.02557    0.51432    0.12367    1.000
    Si189    Si       0.01296    0.58012    0.16422    1.000
    N190     N        0.02209    0.62320    0.16447    1.000
    Si191    Si       0.03997    0.58969    0.23075    1.000
    N192     N        0.00852    0.57360    0.20638    1.000
    N193     N        0.02564    0.63124    0.24096    1.000
    Si194    Si       0.03017    0.60580    0.34641    1.000
    Si195    Si       0.01362    0.58213    0.29253    1.000
    N196     N        0.01353    0.56480    0.33188    1.000
    N197     N        0.02848    0.62079    0.30592    1.000
    N198     N        0.04551    0.56624    0.26557    1.000
    Si199    Si       0.01643    0.70854    0.32982    1.000
    N200     N        0.01510    0.68886    0.29065    1.000
    Si201    Si       0.03983    0.65283    0.27642    1.000
    N202     N        0.00391    0.75287    0.32960    1.000
    N203     N        0.99111    0.74666    0.26019    1.000
    N204     N        0.99141    0.69254    0.36077    1.000
    N205     N        0.99820    0.62232    0.37153    1.000
    N206     N        0.02734    0.58693    0.42248    1.000
    Si207    Si       0.02587    0.59559    0.46626    1.000
    N208     N        0.99114    0.57682    0.48440    1.000
    Si209    Si       0.03030    0.67492    0.45734    1.000
    N210     N        0.01685    0.74540    0.39547    1.000
    N211     N        0.99967    0.68104    0.42701    1.000
    N212     N        0.02211    0.63677    0.47809    1.000
    N213     N        0.04999    0.74249    0.45613    1.000
    Si214    Si       0.98706    0.59525    0.40368    1.000
    N215     N        0.02137    0.69582    0.49672    1.000
    N216     N        0.01974    0.57292    0.55908    1.000
    Si217    Si       0.03030    0.52703    0.60932    1.000
    Si218    Si       0.00802    0.59476    0.59741    1.000
    N219     N        0.03048    0.62928    0.60968    1.000
    Si220    Si       0.98940    0.56539    0.52932    1.000
    Si221    Si       0.02429    0.65751    0.51489    1.000
    Si222    Si       0.01754    0.71787    0.60708    1.000
    N223     N        0.01044    0.74965    0.57891    1.000
    N224     N        0.00153    0.65979    0.55262    1.000
    Si225    Si       0.04469    0.65684    0.57692    1.000
    Si226    Si       0.99071    0.64838    0.62150    1.000
    Si227    Si       0.03327    0.73716    0.49541    1.000
    N228     N        0.04644    0.50945    0.64762    1.000
    N229     N        0.00860    0.56226    0.62720    1.000
    N230     N        0.03481    0.61039    0.72280    1.000
    Si231    Si       0.99934    0.58615    0.73203    1.000
    Si232    Si       0.02205    0.52250    0.71038    1.000
    Si233    Si       0.01712    0.71445    0.74507    1.000
    N234     N        0.99020    0.64783    0.66419    1.000
    N235     N        0.01735    0.74335    0.64300    1.000
    N236     N        0.01985    0.67955    0.71947    1.000
    Si237    Si       0.02903    0.75280    0.68468    1.000
    N238     N        0.00031    0.74427    0.71763    1.000
    N239     N        0.02279    0.58440    0.80385    1.000
    Si240    Si       0.02760    0.54354    0.78861    1.000
    Si241    Si       0.04067    0.59371    0.84373    1.000
    N242     N        0.99711    0.52139    0.81013    1.000
    N243     N        0.04508    0.67999    0.87708    1.000
    Si244    Si       0.99898    0.73057    0.81297    1.000
    N245     N        0.99830    0.70036    0.78098    1.000
    N246     N        0.03220    0.73600    0.83965    1.000
    Si247    Si       0.03766    0.66081    0.83537    1.000
    N248     N        0.00139    0.64468    0.81961    1.000
    N249     N        0.00939    0.60023    0.87153    1.000
    N250     N        0.01291    0.56337    0.93473    1.000
    Si251    Si       0.03329    0.54938    0.96889    1.000
    Si252    Si       0.01745    0.60160    0.91451    1.000
    N253     N        0.02850    0.62908    0.98344    1.000
    N254     N        0.99625    0.73092    0.89997    1.000
    Si255    Si       0.99438    0.65028    0.96503    1.000
    Si256    Si       0.03513    0.72214    0.88044    1.000
    N257     N        0.99874    0.69184    0.95733    1.000
    N258     N        0.98609    0.62962    0.92756    1.000
    N259     N        0.01057    0.54530    0.74621    1.000
    Si260    Si       0.02124    0.82522    0.04092    1.000
    N261     N        0.00152    0.78985    0.05489    1.000
    N262     N        0.99396    0.85935    0.03322    1.000
    N263     N        0.04400    0.84546    0.07129    1.000
    N264     N        0.00349    0.97833    0.09704    1.000
    Si265    Si       0.02107    0.93828    0.10778    1.000
    N266     N        0.02134    0.91497    0.06965    1.000
    Si267    Si       0.99660    0.90632    0.03374    1.000
    N268     N        0.01299    0.75498    0.99379    1.000
    Si269    Si       0.01132    0.01174    0.07054    1.000
    N270     N        0.99571    0.87025    0.13546    1.000
    Si271    Si       0.99463    0.77411    0.22755    1.000
    N272     N        0.01803    0.80649    0.12568    1.000
    N273     N        0.04211    0.77813    0.22622    1.000
    Si274    Si       0.01679    0.86617    0.22111    1.000
    N275     N        0.02604    0.83777    0.18871    1.000
    Si276    Si       0.99919    0.83162    0.15500    1.000
    Si277    Si       0.04602    0.77044    0.13262    1.000
    Si278    Si       0.04906    0.98666    0.23099    1.000
    N279     N        0.01538    0.90856    0.21273    1.000
    Si280    Si       0.99649    0.93746    0.24379    1.000
    N281     N        0.99596    0.93688    0.14379    1.000
    Si282    Si       0.01318    0.94168    0.18430    1.000
    N283     N        0.02381    0.80076    0.28453    1.000
    Si284    Si       0.02497    0.84334    0.29567    1.000
    N285     N        0.04040    0.86061    0.25760    1.000
    Si286    Si       0.99327    0.77248    0.29441    1.000
    Si287    Si       0.99989    0.77568    0.36662    1.000
    N288     N        0.03269    0.95770    0.25879    1.000
    Si289    Si       0.01209    0.98785    0.34702    1.000
    N290     N        0.03087    0.91857    0.31700    1.000
    Si291    Si       0.02243    0.99293    0.42007    1.000
    N292     N        0.02404    0.81139    0.37516    1.000
    Si293    Si       0.03844    0.76954    0.42330    1.000
    Si294    Si       0.01615    0.83384    0.41005    1.000
    Si295    Si       0.01451    0.80378    0.48086    1.000
    N296     N        0.01015    0.79932    0.43818    1.000
    N297     N        0.04475    0.85871    0.43090    1.000
    N298     N        0.99870    0.90367    0.48778    1.000
    N299     N        0.01204    0.96932    0.38560    1.000
    N300     N        0.03981    0.90613    0.38189    1.000
    Si301    Si       0.00433    0.92825    0.38237    1.000
    Si302    Si       0.00741    0.93124    0.45553    1.000
    N303     N        0.00026    0.97548    0.45499    1.000
    Si304    Si       0.01233    0.00427    0.49092    1.000
    Si305    Si       0.04900    0.95449    0.29866    1.000
    Si306    Si       0.01822    0.83750    0.53979    1.000
    N307     N        0.99735    0.84394    0.57688    1.000
    Si308    Si       0.02278    0.84937    0.61126    1.000
    N309     N        0.03733    0.87616    0.53752    1.000
    N310     N        0.99706    0.83675    0.50238    1.000
    N311     N        0.04031    0.81098    0.61766    1.000
    N312     N        0.00121    0.76642    0.49761    1.000
    N313     N        0.00892    0.94127    0.55213    1.000
    Si314    Si       0.00454    0.90454    0.53127    1.000
    N315     N        0.01291    0.95189    0.61827    1.000
    N316     N        0.99045    0.91398    0.68310    1.000
    Si317    Si       0.04796    0.95615    0.53876    1.000
    Si318    Si       0.00831    0.78638    0.63400    1.000
    N319     N        0.02985    0.85508    0.69779    1.000
    N320     N        0.01145    0.79511    0.67710    1.000
    Si321    Si       0.02454    0.81362    0.71422    1.000
    Si322    Si       0.99306    0.86993    0.67505    1.000
    N323     N        0.98838    0.85939    0.63432    1.000
    N324     N        0.04094    0.99912    0.74163    1.000
    N325     N        0.01442    0.98006    0.68329    1.000
    N326     N        0.99773    0.94778    0.74284    1.000
    Si327    Si       0.00407    0.98572    0.72515    1.000
    Si328    Si       0.99279    0.94909    0.65679    1.000
    Si329    Si       0.00246    0.83254    0.84701    1.000
    Si330    Si       0.00133    0.80037    0.78293    1.000
    N331     N        0.00627    0.79100    0.86037    1.000
    N332     N        0.03998    0.78646    0.79581    1.000
    Si333    Si       0.04199    0.77727    0.83900    1.000
    N334     N        0.04115    0.85023    0.83594    1.000
    Si335    Si       0.00827    0.00776    0.81438    1.000
    N336     N        0.99852    0.90502    0.80849    1.000
    Si337    Si       0.03193    0.89300    0.83296    1.000
    N338     N        0.02427    0.96706    0.80477    1.000
    Si339    Si       0.99411    0.94459    0.78588    1.000
    N340     N        0.99856    0.85139    0.88618    1.000
    Si341    Si       0.00959    0.82464    0.92087    1.000
    N342     N        0.01048    0.85144    0.95399    1.000
    Si343    Si       0.99553    0.88805    0.96691    1.000
    Si344    Si       0.99140    0.89496    0.89212    1.000
    Si345    Si       0.99409    0.95400    0.93701    1.000
    N346     N        0.02810    0.91316    0.87377    1.000
    N347     N        0.03832    0.96023    0.92743    1.000
    N348     N        0.05078    0.81014    0.93763    1.000
    N349     N        0.01969    0.90877    0.99552    1.000
    N350     N        0.99204    0.81795    0.74539    1.000
    Si351    Si       0.09167    0.08364    0.03450    1.000
    Si352    Si       0.05138    0.05704    0.08374    1.000
    N353     N        0.09800    0.05665    0.07031    1.000
    N354     N        0.05273    0.01653    0.06100    1.000
    N355     N        0.07039    0.10632    0.00141    1.000
    Si356    Si       0.09443    0.01429    0.05891    1.000
    N357     N        0.06248    0.21507    0.08048    1.000
    Si358    Si       0.05824    0.20153    0.03928    1.000
    N359     N        0.07559    0.14684    0.09871    1.000
    N360     N        0.07006    0.16133    0.03444    1.000
    N361     N        0.08334    0.22440    0.01249    1.000
    Si362    Si       0.06085    0.18638    0.11248    1.000
    Si363    Si       0.09995    0.14960    0.06276    1.000
    N364     N        0.04597    0.09147    0.05766    1.000
    N365     N        0.06358    0.07279    0.12283    1.000
    Si366    Si       0.07742    0.11289    0.12643    1.000
    Si367    Si       0.05498    0.04258    0.15591    1.000
    N368     N        0.06337    0.04988    0.19805    1.000
    Si369    Si       0.09438    0.04166    0.22579    1.000
    N370     N        0.05763    0.13139    0.15986    1.000
    Si371    Si       0.08169    0.16087    0.18068    1.000
    N372     N        0.07567    0.19556    0.15277    1.000
    N373     N        0.07629    0.17701    0.22081    1.000
    N374     N        0.08822    0.06812    0.26038    1.000
    Si375    Si       0.06030    0.10062    0.26659    1.000
    Si376    Si       0.10316    0.12419    0.31873    1.000
    N377     N        0.10048    0.08152    0.32807    1.000
    Si378    Si       0.08671    0.07007    0.36906    1.000
    N379     N        0.10278    0.01553    0.31056    1.000
    N380     N        0.07911    0.13556    0.28401    1.000
    N381     N        0.08417    0.13880    0.35528    1.000
    N382     N        0.08765    0.22999    0.26146    1.000
    Si383    Si       0.05452    0.15902    0.25136    1.000
    N384     N        0.10116    0.21788    0.35876    1.000
    N385     N        0.07518    0.06012    0.44204    1.000
    N386     N        0.08448    0.02724    0.37775    1.000
    Si387    Si       0.09023    0.02381    0.42140    1.000
    N388     N        0.04906    0.24684    0.45221    1.000
    N389     N        0.09155    0.13143    0.44768    1.000
    Si390    Si       0.10108    0.17538    0.37148    1.000
    Si391    Si       0.07922    0.22869    0.39651    1.000
    Si392    Si       0.06096    0.15896    0.43420    1.000
    Si393    Si       0.06933    0.24108    0.48925    1.000
    N394     N        0.07661    0.18637    0.40575    1.000
    Si395    Si       0.04478    0.22315    0.27120    1.000
    N396     N        0.08236    0.08898    0.52468    1.000
    Si397    Si       0.06510    0.04386    0.60512    1.000
    N398     N        0.10058    0.02980    0.58522    1.000
    N399     N        0.10478    0.02644    0.51426    1.000
    Si400    Si       0.08975    0.13085    0.53946    1.000
    Si401    Si       0.05532    0.19336    0.55232    1.000
    N402     N        0.09860    0.19964    0.55918    1.000
    N403     N        0.05252    0.14874    0.54960    1.000
    N404     N        0.07620    0.07519    0.63538    1.000
    Si405    Si       0.06822    0.11371    0.65247    1.000
    Si406    Si       0.05348    0.19245    0.62712    1.000
    Si407    Si       0.05712    0.16887    0.74469    1.000
    N408     N        0.05292    0.15022    0.63695    1.000
    Si409    Si       0.09627    0.23071    0.74227    1.000
    N410     N        0.09033    0.15646    0.72123    1.000
    N411     N        0.08378    0.23349    0.70105    1.000
    N412     N        0.09152    0.21445    0.63030    1.000
    Si413    Si       0.10739    0.23816    0.66375    1.000
    N414     N        0.04942    0.01259    0.63015    1.000
    N415     N        0.04802    0.11236    0.69053    1.000
    N416     N        0.07354    0.09215    0.81870    1.000
    Si417    Si       0.07368    0.05269    0.83250    1.000
    Si418    Si       0.05661    0.03122    0.76525    1.000
    N419     N        0.09757    0.01824    0.75580    1.000
    Si420    Si       0.09119    0.13009    0.80900    1.000
    N421     N        0.04959    0.07220    0.75164    1.000
    N422     N        0.06093    0.14009    0.77729    1.000
    N423     N        0.08766    0.15730    0.84202    1.000
    N424     N        0.06351    0.20872    0.76212    1.000
    N425     N        0.05878    0.25860    0.81205    1.000
    Si426    Si       0.05617    0.18196    0.85663    1.000
    N427     N        0.07245    0.22176    0.87186    1.000
    N428     N        0.06515    0.04077    0.87388    1.000
    Si429    Si       0.09003    0.09287    0.96466    1.000
    N430     N        0.07044    0.05651    0.94798    1.000
    Si431    Si       0.09018    0.03628    0.91377    1.000
    Si432    Si       0.08310    0.02370    0.98259    1.000
    N433     N        0.08694    0.13046    0.94364    1.000
    Si434    Si       0.10356    0.22359    0.90182    1.000
    N435     N        0.05607    0.18841    0.95574    1.000
    N436     N        0.09464    0.23852    0.94202    1.000
    Si437    Si       0.08923    0.20799    0.97366    1.000
    Si438    Si       0.06729    0.16212    0.92173    1.000
    N439     N        0.07802    0.34636    0.07551    1.000
    N440     N        0.07655    0.34292    0.00598    1.000
    N441     N        0.09788    0.27619    0.06580    1.000
    Si442    Si       0.05590    0.35755    0.04105    1.000
    Si443    Si       0.06766    0.36377    0.11621    1.000
    N444     N        0.09387    0.45590    0.09108    1.000
    Si445    Si       0.06325    0.46985    0.06258    1.000
    Si446    Si       0.06115    0.41955    0.00548    1.000
    N447     N        0.05974    0.46037    0.01908    1.000
    N448     N        0.10188    0.40538    0.00665    1.000
    N449     N        0.07893    0.35951    0.21836    1.000
    Si450    Si       0.06593    0.32851    0.19020    1.000
    N451     N        0.05832    0.33394    0.14681    1.000
    N452     N        0.09560    0.29953    0.18719    1.000
    N453     N        0.08945    0.50306    0.15730    1.000
    N454     N        0.09961    0.39048    0.12301    1.000
    N455     N        0.05990    0.43866    0.15143    1.000
    N456     N        0.08533    0.45601    0.21421    1.000
    Si457    Si       0.09512    0.43266    0.12678    1.000
    Si458    Si       0.06463    0.47487    0.17991    1.000
    Si459    Si       0.07038    0.25679    0.09351    1.000
    N460     N        0.09241    0.25706    0.13103    1.000
    N461     N        0.07979    0.29586    0.27704    1.000
    Si462    Si       0.07602    0.32526    0.30845    1.000
    N463     N        0.05572    0.35657    0.28641    1.000
    N464     N        0.05077    0.30654    0.33774    1.000
    Si465    Si       0.06609    0.39623    0.29987    1.000
    Si466    Si       0.07648    0.49511    0.34242    1.000
    Si467    Si       0.07452    0.45844    0.25425    1.000
    N468     N        0.05285    0.42352    0.26879    1.000
    N469     N        0.10822    0.46515    0.34890    1.000
    Si470    Si       0.06764    0.39080    0.41236    1.000
    N471     N        0.09976    0.41587    0.40112    1.000
    Si472    Si       0.10372    0.37592    0.48020    1.000
    Si473    Si       0.05665    0.29726    0.38083    1.000
    N474     N        0.10108    0.30030    0.38743    1.000
    N475     N        0.06914    0.35763    0.38165    1.000
    N476     N        0.06892    0.37948    0.45547    1.000
    Si477    Si       0.06495    0.34293    0.58653    1.000
    Si478    Si       0.08348    0.28223    0.58895    1.000
    N479     N        0.08641    0.31911    0.55853    1.000
    N480     N        0.07535    0.27880    0.50953    1.000
    N481     N        0.07280    0.31478    0.61846    1.000
    N482     N        0.07295    0.38473    0.58978    1.000
    Si483    Si       0.07261    0.40692    0.55127    1.000
    Si484    Si       0.07897    0.48268    0.52410    1.000
    N485     N        0.06554    0.45169    0.55346    1.000
    N486     N        0.10450    0.39898    0.52119    1.000
    Si487    Si       0.07317    0.29842    0.65828    1.000
    N488     N        0.07841    0.32900    0.68917    1.000
    Si489    Si       0.06565    0.37509    0.68487    1.000
    Si490    Si       0.05856    0.32666    0.72763    1.000
    N491     N        0.06681    0.44002    0.64807    1.000
    Si492    Si       0.05285    0.40630    0.62312    1.000
    Si493    Si       0.06858    0.45505    0.72487    1.000
    N494     N        0.10475    0.38744    0.67164    1.000
    N495     N        0.05979    0.41358    0.71296    1.000
    Si496    Si       0.10357    0.43045    0.67133    1.000
    N497     N        0.10406    0.45996    0.70088    1.000
    N498     N        0.04597    0.26961    0.57045    1.000
    Si499    Si       0.07642    0.29642    0.78458    1.000
    N500     N        0.08570    0.33873    0.76058    1.000
    Si501    Si       0.07960    0.37138    0.78945    1.000
    N502     N        0.07455    0.37884    0.83236    1.000
    N503     N        0.09865    0.28463    0.86245    1.000
    N504     N        0.10425    0.26792    0.76283    1.000
    Si505    Si       0.06275    0.25981    0.85264    1.000
    N506     N        0.04766    0.31940    0.81665    1.000
    N507     N        0.07332    0.47217    0.76331    1.000
    Si508    Si       0.08064    0.41885    0.84826    1.000
    Si509    Si       0.10788    0.27842    0.95240    1.000
    Si510    Si       0.09965    0.36891    0.98355    1.000
    Si511    Si       0.05724    0.30789    0.98787    1.000
    N512     N        0.07769    0.30955    0.94658    1.000
    Si513    Si       0.07661    0.34452    0.92141    1.000
    N514     N        0.07802    0.38213    0.94483    1.000
    N515     N        0.09513    0.41564    0.88763    1.000
    Si516    Si       0.06184    0.49417    0.92734    1.000
    N517     N        0.08929    0.46300    0.93564    1.000
    Si518    Si       0.07209    0.42092    0.92542    1.000
    Si519    Si       0.08519    0.53749    0.06558    1.000
    Si520    Si       0.07292    0.60562    0.06802    1.000
    N521     N        0.08919    0.55076    0.10595    1.000
    N522     N        0.06093    0.56976    0.04785    1.000
    N523     N        0.07461    0.63606    0.03662    1.000
    N524     N        0.07511    0.70157    0.08005    1.000
    Si525    Si       0.06143    0.71115    0.03976    1.000
    Si526    Si       0.05318    0.69670    0.11571    1.000
    N527     N        0.06950    0.75655    0.03436    1.000
    N528     N        0.10167    0.69866    0.02178    1.000
    Si529    Si       0.10480    0.65489    0.01371    1.000
    N530     N        0.07416    0.60799    0.21323    1.000
    N531     N        0.09804    0.61241    0.14899    1.000
    Si532    Si       0.06350    0.53149    0.13551    1.000
    Si533    Si       0.08759    0.58452    0.18111    1.000
    N534     N        0.05383    0.56546    0.15993    1.000
    Si535    Si       0.05684    0.63071    0.14080    1.000
    N536     N        0.07308    0.67041    0.14651    1.000
    N537     N        0.07489    0.71993    0.21363    1.000
    Si538    Si       0.09945    0.63633    0.23303    1.000
    Si539    Si       0.05902    0.70007    0.17773    1.000
    N540     N        0.05025    0.72784    0.14436    1.000
    Si541    Si       0.07087    0.52896    0.27108    1.000
    N542     N        0.07863    0.52627    0.31303    1.000
    Si543    Si       0.10237    0.62562    0.35832    1.000
    N544     N        0.06651    0.60270    0.36701    1.000
    N545     N        0.09903    0.66436    0.37898    1.000
    N546     N        0.07416    0.74242    0.27971    1.000
    N547     N        0.07845    0.66620    0.25909    1.000
    Si548    Si       0.07790    0.74467    0.32486    1.000
    N549     N        0.05688    0.71216    0.34434    1.000
    Si550    Si       0.08954    0.71015    0.25397    1.000
    Si551    Si       0.08829    0.70637    0.37149    1.000
    N552     N        0.06225    0.58085    0.48582    1.000
    Si553    Si       0.07364    0.53910    0.48035    1.000
    N554     N        0.09304    0.55817    0.41090    1.000
    Si555    Si       0.06677    0.59250    0.40934    1.000
    N556     N        0.09248    0.62050    0.42921    1.000
    Si557    Si       0.07823    0.51832    0.41269    1.000
    N558     N        0.05206    0.51733    0.44826    1.000
    N559     N        0.05557    0.51214    0.37653    1.000
    N560     N        0.07145    0.68169    0.45010    1.000
    Si561    Si       0.08778    0.72133    0.45237    1.000
    N562     N        0.10213    0.72136    0.41154    1.000
    Si563    Si       0.10016    0.66522    0.42137    1.000
    N564     N        0.06764    0.53997    0.59286    1.000
    N565     N        0.09050    0.58864    0.54725    1.000
    Si566    Si       0.07983    0.61225    0.51312    1.000
    N567     N        0.06590    0.52477    0.52338    1.000
    Si568    Si       0.06006    0.55596    0.55228    1.000
    N569     N        0.09656    0.63569    0.60660    1.000
    N570     N        0.05900    0.64376    0.53697    1.000
    Si571    Si       0.08945    0.71987    0.59314    1.000
    N572     N        0.06493    0.74996    0.52518    1.000
    N573     N        0.05150    0.69902    0.58816    1.000
    Si574    Si       0.06677    0.58887    0.70421    1.000
    N575     N        0.06532    0.58887    0.66037    1.000
    Si576    Si       0.06938    0.54346    0.66047    1.000
    N577     N        0.05753    0.54581    0.70279    1.000
    Si578    Si       0.06430    0.62816    0.63874    1.000
    N579     N        0.06608    0.65719    0.67273    1.000
    Si580    Si       0.08871    0.69656    0.67073    1.000
    N581     N        0.06508    0.72832    0.68604    1.000
    Si582    Si       0.05007    0.65036    0.71172    1.000
    N583     N        0.08198    0.66191    0.73756    1.000
    N584     N        0.10751    0.59582    0.71971    1.000
    N585     N        0.07175    0.53616    0.79160    1.000
    N586     N        0.06296    0.55881    0.85473    1.000
    Si587    Si       0.09602    0.54771    0.82639    1.000
    N588     N        0.06820    0.62800    0.85116    1.000
    Si589    Si       0.09798    0.50658    0.76748    1.000
    N590     N        0.06390    0.66630    0.80374    1.000
    Si591    Si       0.07838    0.69187    0.76983    1.000
    Si592    Si       0.09811    0.64220    0.82009    1.000
    N593     N        0.05548    0.72783    0.75979    1.000
    Si594    Si       0.06502    0.61568    0.96179    1.000
    Si595    Si       0.07158    0.52482    0.87745    1.000
    N596     N        0.07217    0.57193    0.96889    1.000
    N597     N        0.08624    0.52906    0.91781    1.000
    N598     N        0.05542    0.61936    0.91983    1.000
    N599     N        0.08025    0.75467    0.97096    1.000
    N600     N        0.09523    0.64411    0.97347    1.000
    N601     N        0.06177    0.75117    0.89977    1.000
    Si602    Si       0.07200    0.64861    0.89025    1.000
    N603     N        0.10946    0.61950    0.78621    1.000
    N604     N        0.10194    0.50963    0.85125    1.000
    N605     N        0.06951    0.78421    0.09979    1.000
    Si606    Si       0.08837    0.83485    0.01901    1.000
    Si607    Si       0.09499    0.77207    0.06823    1.000
    N608     N        0.07985    0.88063    0.02663    1.000
    Si609    Si       0.05274    0.82551    0.10699    1.000
    Si610    Si       0.05147    0.77277    0.99920    1.000
    N611     N        0.05021    0.81695    0.00802    1.000
    Si612    Si       0.05343    0.88630    0.06257    1.000
    N613     N        0.08736    0.89475    0.08768    1.000
    N614     N        0.10301    0.99776    0.01674    1.000
    N615     N        0.06838    0.78680    0.16687    1.000
    Si616    Si       0.06514    0.82877    0.17559    1.000
    N617     N        0.06744    0.85292    0.13808    1.000
    N618     N        0.09179    0.83743    0.20912    1.000
    Si619    Si       0.07446    0.76210    0.20165    1.000
    N620     N        0.05628    0.93371    0.13233    1.000
    N621     N        0.08681    0.00230    0.24328    1.000
    Si622    Si       0.07186    0.96788    0.15588    1.000
    N623     N        0.06729    0.00641    0.13732    1.000
    Si624    Si       0.07737    0.89538    0.13071    1.000
    N625     N        0.04714    0.96662    0.19245    1.000
    N626     N        0.07718    0.78676    0.32922    1.000
    N627     N        0.08776    0.81277    0.27103    1.000
    Si628    Si       0.05808    0.78112    0.26837    1.000
    Si629    Si       0.06409    0.81742    0.35786    1.000
    Si630    Si       0.08365    0.85209    0.24957    1.000
    N631     N        0.05057    0.85121    0.32907    1.000
    Si632    Si       0.05941    0.89727    0.42055    1.000
    N633     N        0.09546    0.89604    0.33945    1.000
    N634     N        0.09113    0.95186    0.28880    1.000
    Si635    Si       0.08978    0.99647    0.34729    1.000
    Si636    Si       0.05320    0.89327    0.34211    1.000
    N637     N        0.05170    0.98426    0.33134    1.000
    Si638    Si       0.07183    0.96284    0.46867    1.000
    N639     N        0.09965    0.83284    0.37590    1.000
    Si640    Si       0.07434    0.84057    0.45875    1.000
    N641     N        0.09231    0.86864    0.48676    1.000
    N642     N        0.07514    0.78569    0.41140    1.000
    N643     N        0.05840    0.80737    0.48301    1.000
    N644     N        0.06396    0.98984    0.43332    1.000
    N645     N        0.10145    0.90310    0.41846    1.000
    N646     N        0.04974    0.92836    0.45347    1.000
    Si647    Si       0.07854    0.79530    0.51918    1.000
    Si648    Si       0.08222    0.79774    0.61506    1.000
    N649     N        0.05861    0.87474    0.61355    1.000
    Si650    Si       0.09840    0.86264    0.59582    1.000
    N651     N        0.05028    0.80825    0.54788    1.000
    Si652    Si       0.04620    0.76738    0.56282    1.000
    N653     N        0.07727    0.76154    0.59232    1.000
    N654     N        0.10752    0.87272    0.55415    1.000
    Si655    Si       0.07743    0.88364    0.52549    1.000
    N656     N        0.06187    0.98061    0.57081    1.000
    N657     N        0.07805    0.92810    0.52490    1.000
    Si658    Si       0.09494    0.00435    0.55234    1.000
    Si659    Si       0.04996    0.97280    0.61199    1.000
    N660     N        0.05711    0.78729    0.72332    1.000
    Si661    Si       0.09407    0.79322    0.70213    1.000
    Si662    Si       0.06810    0.87036    0.71015    1.000
    N663     N        0.09490    0.79265    0.65747    1.000
    N664     N        0.09822    0.83636    0.71086    1.000
    Si665    Si       0.08079    0.98795    0.72988    1.000
    N666     N        0.07870    0.90254    0.68093    1.000
    N667     N        0.10256    0.95161    0.73571    1.000
    Si668    Si       0.07984    0.90528    0.63718    1.000
    N669     N        0.08132    0.94874    0.62704    1.000
    N670     N        0.08239    0.00508    0.69074    1.000
    N671     N        0.04626    0.97969    0.50203    1.000
    Si672    Si       0.08365    0.83407    0.83415    1.000
    N673     N        0.07820    0.79362    0.84883    1.000
    Si674    Si       0.06700    0.76908    0.76326    1.000
    N675     N        0.10153    0.84229    0.79302    1.000
    N676     N        0.06800    0.88523    0.74996    1.000
    Si677    Si       0.09164    0.88482    0.78527    1.000
    N678     N        0.06779    0.90853    0.81210    1.000
    N679     N        0.06309    0.96661    0.85772    1.000
    Si680    Si       0.06137    0.94954    0.81859    1.000
    N681     N        0.09821    0.96825    0.80377    1.000
    Si682    Si       0.09526    0.99178    0.84297    1.000
    Si683    Si       0.09513    0.76687    0.87631    1.000
    Si684    Si       0.07754    0.77593    0.93282    1.000
    N685     N        0.07386    0.87372    0.96347    1.000
    Si686    Si       0.04876    0.83923    0.96977    1.000
    Si687    Si       0.06610    0.97344    0.95611    1.000
    N688     N        0.10035    0.00160    0.94511    1.000
    Si689    Si       0.06345    0.90389    0.99146    1.000
    N690     N        0.08004    0.94262    0.98333    1.000
    Si691    Si       0.05563    0.94135    0.89217    1.000
    N692     N        0.09596    0.92394    0.90074    1.000
    N693     N        0.04598    0.00180    0.98321    1.000
    N694     N        0.12104    0.11350    0.04746    1.000
    Si695    Si       0.12377    0.06728    0.10447    1.000
    Si696    Si       0.16171    0.09883    0.05342    1.000
    N697     N        0.10729    0.05763    0.00152    1.000
    N698     N        0.15002    0.23746    0.03379    1.000
    N699     N        0.12984    0.17938    0.06498    1.000
    Si700    Si       0.10834    0.22300    0.15555    1.000
    Si701    Si       0.11025    0.25526    0.02832    1.000
    N702     N        0.12000    0.10639    0.12568    1.000
    Si703    Si       0.15473    0.05226    0.17144    1.000
    N704     N        0.13007    0.04070    0.13772    1.000
    N705     N        0.13312    0.05165    0.20998    1.000
    Si706    Si       0.14426    0.12561    0.15332    1.000
    Si707    Si       0.15562    0.07347    0.24016    1.000
    Si708    Si       0.10683    0.20621    0.22984    1.000
    N709     N        0.11835    0.23266    0.19587    1.000
    Si710    Si       0.15303    0.14948    0.21725    1.000
    N711     N        0.14010    0.20969    0.13149    1.000
    N712     N        0.12477    0.14982    0.18380    1.000
    N713     N        0.14080    0.18391    0.24186    1.000
    N714     N        0.15135    0.05556    0.27976    1.000
    Si715    Si       0.11228    0.05537    0.29595    1.000
    N716     N        0.14706    0.13218    0.31460    1.000
    N717     N        0.15541    0.19944    0.31620    1.000
    Si718    Si       0.13755    0.23179    0.34029    1.000
    Si719    Si       0.16385    0.16287    0.33977    1.000
    N720     N        0.13184    0.08580    0.47417    1.000
    N721     N        0.11658    0.08008    0.39789    1.000
    N722     N        0.12702    0.01764    0.44104    1.000
    Si723    Si       0.15962    0.08710    0.39899    1.000
    N724     N        0.15991    0.12048    0.42407    1.000
    Si725    Si       0.16740    0.02171    0.42303    1.000
    N726     N        0.16412    0.00709    0.38372    1.000
    N727     N        0.15742    0.25606    0.37055    1.000
    N728     N        0.11335    0.24423    0.42208    1.000
    N729     N        0.14208    0.18255    0.44581    1.000
    Si730    Si       0.16474    0.16121    0.41393    1.000
    N731     N        0.10879    0.22310    0.49064    1.000
    N732     N        0.14328    0.16864    0.37835    1.000
    Si733    Si       0.12811    0.14794    0.46913    1.000
    Si734    Si       0.13361    0.22392    0.45445    1.000
    Si735    Si       0.10332    0.08974    0.43952    1.000
    N736     N        0.15397    0.11688    0.24512    1.000
    Si737    Si       0.13799    0.02681    0.60691    1.000
    Si738    Si       0.14863    0.09367    0.57857    1.000
    N739     N        0.15102    0.07497    0.53817    1.000
    Si740    Si       0.11727    0.06850    0.51129    1.000
    N741     N        0.14565    0.06887    0.61507    1.000
    N742     N        0.11862    0.12198    0.56928    1.000
    Si743    Si       0.12289    0.19688    0.52257    1.000
    N744     N        0.14997    0.19342    0.60669    1.000
    Si745    Si       0.11538    0.21518    0.59402    1.000
    N746     N        0.16505    0.19215    0.53384    1.000
    N747     N        0.10935    0.15570    0.50918    1.000
    N748     N        0.13279    0.05714    0.67884    1.000
    Si749    Si       0.11737    0.07937    0.64526    1.000
    N750     N        0.14289    0.10908    0.72164    1.000
    Si751    Si       0.12205    0.01474    0.68051    1.000
    N752     N        0.11080    0.11888    0.66063    1.000
    Si753    Si       0.16400    0.07860    0.69845    1.000
    N754     N        0.15106    0.16821    0.68664    1.000
    Si755    Si       0.12140    0.13806    0.69801    1.000
    Si756    Si       0.16347    0.19308    0.72238    1.000
    N757     N        0.14902    0.22781    0.66684    1.000
    Si758    Si       0.16212    0.19204    0.64999    1.000
    N759     N        0.12934    0.11595    0.79095    1.000
    Si760    Si       0.14030    0.03157    0.86105    1.000
    N761     N        0.15439    0.04317    0.77554    1.000
    N762     N        0.11013    0.03016    0.82585    1.000
    N763     N        0.15546    0.07430    0.84143    1.000
    Si764    Si       0.15275    0.08037    0.79889    1.000
    Si765    Si       0.15806    0.12547    0.76020    1.000
    Si766    Si       0.12530    0.01126    0.78820    1.000
    N767     N        0.14573    0.24796    0.81535    1.000
    N768     N        0.15394    0.17629    0.84965    1.000
    Si769    Si       0.14480    0.25272    0.77308    1.000
    Si770    Si       0.16052    0.22197    0.84686    1.000
    Si771    Si       0.12201    0.15716    0.87042    1.000
    N772     N        0.13710    0.21704    0.74661    1.000
    N773     N        0.13900    0.12545    0.89830    1.000
    N774     N        0.12857    0.05133    0.89921    1.000
    N775     N        0.13581    0.09216    0.95597    1.000
    Si776    Si       0.14859    0.06399    0.98556    1.000
    Si777    Si       0.14945    0.08715    0.91462    1.000
    Si778    Si       0.16849    0.19007    0.97918    1.000
    N779     N        0.14317    0.23271    0.88542    1.000
    N780     N        0.12446    0.18260    0.97292    1.000
    Si781    Si       0.12956    0.15339    0.93539    1.000
    N782     N        0.10517    0.17937    0.90565    1.000
    N783     N        0.14059    0.32602    0.04568    1.000
    Si784    Si       0.13963    0.31787    0.00406    1.000
    Si785    Si       0.11118    0.31886    0.07557    1.000
    N786     N        0.15987    0.38184    0.08513    1.000
    N787     N        0.12666    0.32399    0.11548    1.000
    Si788    Si       0.13636    0.36841    0.12072    1.000
    Si789    Si       0.13789    0.42898    0.01174    1.000
    N790     N        0.14536    0.43880    0.05404    1.000
    Si791    Si       0.12771    0.47434    0.07148    1.000
    N792     N        0.14825    0.49357    0.10344    1.000
    Si793    Si       0.13548    0.50333    0.01065    1.000
    N794     N        0.11101    0.50567    0.04679    1.000
    Si795    Si       0.12238    0.36656    0.22555    1.000
    Si796    Si       0.13084    0.27666    0.20041    1.000
    N797     N        0.14802    0.28219    0.15987    1.000
    N798     N        0.15507    0.34032    0.21263    1.000
    N799     N        0.13794    0.28281    0.24223    1.000
    Si800    Si       0.10810    0.29494    0.14588    1.000
    N801     N        0.16208    0.37735    0.15447    1.000
    N802     N        0.13074    0.40622    0.21007    1.000
    Si803    Si       0.12735    0.49309    0.14457    1.000
    Si804    Si       0.12568    0.44643    0.20194    1.000
    N805     N        0.14838    0.47750    0.22503    1.000
    N806     N        0.12800    0.44925    0.15488    1.000
    Si807    Si       0.13409    0.36912    0.30861    1.000
    N808     N        0.13076    0.35660    0.26786    1.000
    Si809    Si       0.15471    0.32148    0.25273    1.000
    N810     N        0.11079    0.33873    0.33138    1.000
    N811     N        0.13737    0.25937    0.30641    1.000
    Si812    Si       0.11144    0.26505    0.27367    1.000
    Si813    Si       0.12377    0.44377    0.31438    1.000
    Si814    Si       0.13864    0.49386    0.26282    1.000
    N815     N        0.10768    0.40302    0.31067    1.000
    N816     N        0.16313    0.43386    0.32420    1.000
    N817     N        0.14307    0.36290    0.38804    1.000
    Si818    Si       0.13446    0.27582    0.39989    1.000
    N819     N        0.11307    0.33748    0.49418    1.000
    N820     N        0.16393    0.30341    0.41786    1.000
    N821     N        0.11058    0.48962    0.41065    1.000
    Si822    Si       0.13996    0.39934    0.41252    1.000
    N823     N        0.15867    0.43522    0.39693    1.000
    N824     N        0.16088    0.48225    0.46308    1.000
    Si825    Si       0.12158    0.45511    0.38826    1.000
    N826     N        0.13745    0.39305    0.45587    1.000
    Si827    Si       0.10869    0.34225    0.37311    1.000
    N828     N        0.10922    0.46580    0.27832    1.000
    N829     N        0.14872    0.29846    0.53382    1.000
    Si830    Si       0.15541    0.27911    0.57248    1.000
    N831     N        0.16399    0.31094    0.60074    1.000
    N832     N        0.16306    0.36347    0.55151    1.000
    N833     N        0.12002    0.25815    0.58663    1.000
    Si834    Si       0.10759    0.30511    0.52083    1.000
    N835     N        0.12322    0.48121    0.52357    1.000
    Si836    Si       0.14356    0.40165    0.54257    1.000
    N837     N        0.13812    0.43065    0.57216    1.000
    Si838    Si       0.14051    0.47313    0.56303    1.000
    N839     N        0.12544    0.49911    0.59285    1.000
    Si840    Si       0.15570    0.42411    0.60931    1.000
    N841     N        0.16265    0.38265    0.61993    1.000
    N842     N        0.14938    0.33576    0.66584    1.000
    Si843    Si       0.14938    0.30064    0.64370    1.000
    Si844    Si       0.14577    0.38030    0.65911    1.000
    N845     N        0.11149    0.27927    0.65154    1.000
    N846     N        0.16134    0.49388    0.67532    1.000
    Si847    Si       0.13564    0.48619    0.71124    1.000
    N848     N        0.14081    0.43116    0.65158    1.000
    N849     N        0.16053    0.33347    0.74560    1.000
    Si850    Si       0.14529    0.50570    0.49650    1.000
    Si851    Si       0.12874    0.33926    0.77418    1.000
    N852     N        0.12065    0.31327    0.80520    1.000
    Si853    Si       0.13372    0.28573    0.83324    1.000
    N854     N        0.16145    0.29525    0.86615    1.000
    N855     N        0.12441    0.38240    0.78640    1.000
    N856     N        0.15691    0.47514    0.92318    1.000
    N857     N        0.15179    0.39557    0.85174    1.000
    Si858    Si       0.14060    0.41468    0.81349    1.000
    Si859    Si       0.12618    0.48137    0.83280    1.000
    N860     N        0.13388    0.49869    0.79266    1.000
    N861     N        0.10733    0.44366    0.82509    1.000
    Si862    Si       0.12495    0.30868    0.88817    1.000
    N863     N        0.13893    0.28869    0.92476    1.000
    N864     N        0.13914    0.35392    0.98025    1.000
    N865     N        0.11537    0.34928    0.89781    1.000
    N866     N        0.11274    0.28496    0.99574    1.000
    Si867    Si       0.12503    0.48180    0.95053    1.000
    N868     N        0.12865    0.46459    0.99195    1.000
    Si869    Si       0.13022    0.38959    0.89064    1.000
    N870     N        0.15675    0.40113    0.92227    1.000
    N871     N        0.11472    0.60909    0.08147    1.000
    Si872    Si       0.11500    0.58536    0.11737    1.000
    N873     N        0.14289    0.63660    0.02197    1.000
    Si874    Si       0.14698    0.63407    0.06419    1.000
    N875     N        0.12653    0.74531    0.07611    1.000
    N876     N        0.14856    0.67764    0.07685    1.000
    Si877    Si       0.11658    0.70321    0.06410    1.000
    N878     N        0.17018    0.72093    0.18931    1.000
    Si879    Si       0.15508    0.55177    0.17387    1.000
    N880     N        0.15288    0.56845    0.13155    1.000
    N881     N        0.12260    0.56531    0.19857    1.000
    Si882    Si       0.13210    0.56618    0.24034    1.000
    N883     N        0.16027    0.51021    0.16705    1.000
    N884     N        0.14626    0.67458    0.14570    1.000
    Si885    Si       0.14878    0.74016    0.22418    1.000
    Si886    Si       0.15899    0.67909    0.18941    1.000
    N887     N        0.12314    0.65766    0.20322    1.000
    Si888    Si       0.11136    0.65290    0.16050    1.000
    Si889    Si       0.17060    0.69058    0.11389    1.000
    N890     N        0.12432    0.60650    0.25492    1.000
    Si891    Si       0.13794    0.62429    0.29069    1.000
    N892     N        0.15543    0.59322    0.31451    1.000
    N893     N        0.11189    0.53065    0.25659    1.000
    N894     N        0.11531    0.73530    0.34893    1.000
    Si895    Si       0.14989    0.74319    0.32393    1.000
    N896     N        0.13531    0.70794    0.25328    1.000
    N897     N        0.13439    0.59994    0.37571    1.000
    N898     N        0.14893    0.59220    0.45077    1.000
    Si899    Si       0.13358    0.57548    0.41090    1.000
    Si900    Si       0.12599    0.62677    0.45730    1.000
    N901     N        0.16128    0.54156    0.41351    1.000
    N902     N        0.11566    0.52579    0.46862    1.000
    Si903    Si       0.14095    0.51042    0.43579    1.000
    Si904    Si       0.15252    0.75226    0.45933    1.000
    N905     N        0.11650    0.73733    0.47981    1.000
    Si906    Si       0.13704    0.74071    0.39069    1.000
    N907     N        0.16265    0.70546    0.38705    1.000
    N908     N        0.14095    0.66283    0.43929    1.000
    N909     N        0.10339    0.63495    0.31599    1.000
    N910     N        0.12922    0.57261    0.59942    1.000
    N911     N        0.14639    0.62754    0.55959    1.000
    Si912    Si       0.11334    0.60599    0.57968    1.000
    N913     N        0.11646    0.63018    0.49747    1.000
    Si914    Si       0.10740    0.53516    0.60677    1.000
    Si915    Si       0.15451    0.64079    0.51947    1.000
    N916     N        0.11768    0.71698    0.55870    1.000
    Si917    Si       0.15856    0.70356    0.56482    1.000
    N918     N        0.16047    0.67533    0.59954    1.000
    N919     N        0.16134    0.68414    0.52540    1.000
    Si920    Si       0.10963    0.74090    0.52422    1.000
    Si921    Si       0.15367    0.53277    0.65857    1.000
    Si922    Si       0.13485    0.56262    0.72393    1.000
    N923     N        0.11865    0.52120    0.73076    1.000
    N924     N        0.11065    0.53651    0.65112    1.000
    Si925    Si       0.11265    0.63014    0.74416    1.000
    Si926    Si       0.15626    0.66686    0.69574    1.000
    N927     N        0.12769    0.70124    0.69213    1.000
    Si928    Si       0.12528    0.66445    0.62522    1.000
    N929     N        0.14900    0.65063    0.73710    1.000
    N930     N        0.16349    0.72958    0.74093    1.000
    N931     N        0.13754    0.64476    0.66217    1.000
    Si932    Si       0.15308    0.73478    0.69832    1.000
    N933     N        0.10283    0.70123    0.62903    1.000
    Si934    Si       0.14388    0.59463    0.79577    1.000
    N935     N        0.13331    0.57208    0.83172    1.000
    N936     N        0.15919    0.57547    0.75841    1.000
    Si937    Si       0.15863    0.57905    0.86589    1.000
    N938     N        0.10854    0.66127    0.90632    1.000
    N939     N        0.10963    0.73159    0.85748    1.000
    N940     N        0.11469    0.70552    0.78549    1.000
    Si941    Si       0.13651    0.74149    0.77155    1.000
    N942     N        0.12479    0.66630    0.84013    1.000
    Si943    Si       0.12991    0.70834    0.82710    1.000
    N944     N        0.15887    0.73620    0.81006    1.000
    N945     N        0.15303    0.61539    0.88662    1.000
    N946     N        0.13008    0.52322    0.97223    1.000
    N947     N        0.13770    0.58459    0.94970    1.000
    Si948    Si       0.14837    0.60918    0.98753    1.000
    Si949    Si       0.10793    0.55426    0.94927    1.000
    N950     N        0.16122    0.64163    0.95642    1.000
    Si951    Si       0.11094    0.72998    0.98931    1.000
    N952     N        0.13324    0.70537    0.96095    1.000
    Si953    Si       0.12426    0.66604    0.94539    1.000
    Si954    Si       0.14362    0.65687    0.87726    1.000
    Si955    Si       0.14974    0.82405    0.05935    1.000
    N956     N        0.14602    0.86778    0.05987    1.000
    N957     N        0.16408    0.80027    0.09237    1.000
    N958     N        0.10969    0.81077    0.05054    1.000
    Si959    Si       0.11296    0.89543    0.05418    1.000
    Si960    Si       0.11313    0.95690    0.00715    1.000
    N961     N        0.11934    0.99157    0.08661    1.000
    N962     N        0.12177    0.93514    0.04267    1.000
    Si963    Si       0.14286    0.95687    0.07272    1.000
    N964     N        0.15404    0.92389    0.10079    1.000
    Si965    Si       0.14276    0.86611    0.16176    1.000
    N966     N        0.13672    0.82196    0.16415    1.000
    Si967    Si       0.12750    0.81207    0.20463    1.000
    N968     N        0.11810    0.76935    0.21113    1.000
    N969     N        0.15941    0.81465    0.23366    1.000
    N970     N        0.11460    0.96654    0.15049    1.000
    N971     N        0.15894    0.92881    0.23961    1.000
    Si972    Si       0.13111    0.99904    0.12791    1.000
    N973     N        0.11579    0.89867    0.15099    1.000
    Si974    Si       0.14088    0.93370    0.14079    1.000
    N975     N        0.13802    0.83571    0.32582    1.000
    N976     N        0.14042    0.77839    0.30015    1.000
    Si977    Si       0.12026    0.86451    0.35488    1.000
    N978     N        0.11324    0.87911    0.26311    1.000
    Si979    Si       0.15102    0.89847    0.26978    1.000
    N980     N        0.15194    0.91758    0.30782    1.000
    N981     N        0.15343    0.98897    0.27702    1.000
    N982     N        0.11666    0.96409    0.35405    1.000
    Si983    Si       0.11333    0.93350    0.32068    1.000
    Si984    Si       0.11078    0.98775    0.27645    1.000
    N985     N        0.14368    0.77691    0.41329    1.000
    Si986    Si       0.13366    0.85731    0.47121    1.000
    N987     N        0.11404    0.83029    0.44397    1.000
    Si988    Si       0.11187    0.80675    0.40912    1.000
    N989     N        0.16134    0.87927    0.44647    1.000
    Si990    Si       0.12840    0.00518    0.48434    1.000
    N991     N        0.15296    0.88336    0.37768    1.000
    N992     N        0.11285    0.96438    0.48022    1.000
    Si993    Si       0.15219    0.96503    0.37725    1.000
    Si994    Si       0.14440    0.90456    0.41686    1.000
    N995     N        0.16170    0.94420    0.41504    1.000
    Si996    Si       0.10944    0.80659    0.30756    1.000
    N997     N        0.11886    0.78457    0.52836    1.000
    N998     N        0.14955    0.84352    0.50792    1.000
    N999     N        0.11675    0.82354    0.60316    1.000
    Si1000   Si       0.15615    0.80254    0.51870    1.000
    Si1001   Si       0.14804    0.87558    0.53944    1.000
    Si1002   Si       0.16312    0.81387    0.59904    1.000
    Si1003   Si       0.11658    0.94196    0.51596    1.000
    N1004    N        0.12630    0.97238    0.54647    1.000
    N1005    N        0.14972    0.91461    0.51950    1.000
    N1006    N        0.15362    0.94287    0.60333    1.000
    Si1007   Si       0.15954    0.89936    0.61502    1.000
    Si1008   Si       0.16536    0.96840    0.56865    1.000
    N1009    N        0.15917    0.77849    0.62423    1.000
    N1010    N        0.15480    0.83135    0.67365    1.000
    N1011    N        0.13417    0.77318    0.69854    1.000
    Si1012   Si       0.13910    0.79317    0.66048    1.000
    Si1013   Si       0.13944    0.84722    0.71001    1.000
    Si1014   Si       0.12462    0.95800    0.63301    1.000
    N1015    N        0.13687    0.94595    0.67319    1.000
    N1016    N        0.13083    0.00035    0.64124    1.000
    N1017    N        0.11964    0.89091    0.62077    1.000
    N1018    N        0.13984    0.89182    0.71174    1.000
    Si1019   Si       0.11257    0.92292    0.70219    1.000
    N1020    N        0.15443    0.00207    0.70904    1.000
    N1021    N        0.15823    0.82853    0.74589    1.000
    Si1022   Si       0.13277    0.81357    0.77850    1.000
    Si1023   Si       0.15363    0.83912    0.84498    1.000
    N1024    N        0.11519    0.85777    0.85597    1.000
    N1025    N        0.15582    0.80682    0.81369    1.000
    N1026    N        0.11007    0.77673    0.77080    1.000
    N1027    N        0.15266    0.96056    0.98877    1.000
    N1028    N        0.13179    0.90799    0.78616    1.000
    Si1029   Si       0.12416    0.94914    0.77396    1.000
    N1030    N        0.15653    0.97879    0.77761    1.000
    N1031    N        0.11253    0.78717    0.91134    1.000
    Si1032   Si       0.14760    0.80221    0.99200    1.000
    N1033    N        0.12503    0.85839    0.92030    1.000
    Si1034   Si       0.14152    0.81882    0.91497    1.000
    Si1035   Si       0.11612    0.86475    0.96117    1.000
    N1036    N        0.11303    0.82898    0.98472    1.000
    N1037    N        0.14425    0.75938    0.99617    1.000
    N1038    N        0.14334    0.89407    0.97674    1.000
    N1039    N        0.15978    0.97420    0.92392    1.000
    N1040    N        0.15433    0.91735    0.88269    1.000
    N1041    N        0.12647    0.98717    0.86997    1.000
    Si1042   Si       0.14356    0.99389    0.95635    1.000
    Si1043   Si       0.13183    0.95279    0.89416    1.000
    Si1044   Si       0.12243    0.88826    0.88905    1.000
    Si1045   Si       0.20936    0.06389    0.08979    1.000
    N1046    N        0.17313    0.07679    0.01811    1.000
    Si1047   Si       0.21674    0.07664    0.01288    1.000
    N1048    N        0.19340    0.12673    0.06365    1.000
    N1049    N        0.16587    0.07164    0.08688    1.000
    Si1050   Si       0.20858    0.13227    0.10440    1.000
    N1051    N        0.18252    0.17607    0.01624    1.000
    N1052    N        0.19182    0.20058    0.08257    1.000
    Si1053   Si       0.21228    0.14725    0.02959    1.000
    Si1054   Si       0.20751    0.02304    0.21671    1.000
    N1055    N        0.18708    0.02390    0.17691    1.000
    N1056    N        0.19685    0.06610    0.22359    1.000
    Si1057   Si       0.20324    0.10021    0.19193    1.000
    N1058    N        0.16718    0.09284    0.16944    1.000
    N1059    N        0.19235    0.14552    0.20093    1.000
    Si1060   Si       0.22140    0.24355    0.23715    1.000
    Si1061   Si       0.21732    0.17951    0.18981    1.000
    Si1062   Si       0.21869    0.24421    0.15834    1.000
    N1063    N        0.17402    0.14716    0.12787    1.000
    Si1064   Si       0.17713    0.18923    0.12567    1.000
    N1065    N        0.19907    0.20525    0.15959    1.000
    N1066    N        0.22415    0.02333    0.09615    1.000
    N1067    N        0.23146    0.20045    0.22702    1.000
    Si1068   Si       0.16431    0.19923    0.04912    1.000
    N1069    N        0.21019    0.09861    0.29606    1.000
    N1070    N        0.19558    0.03028    0.32424    1.000
    Si1071   Si       0.20666    0.07138    0.33132    1.000
    Si1072   Si       0.18060    0.02277    0.28550    1.000
    Si1073   Si       0.17522    0.12407    0.28434    1.000
    N1074    N        0.21623    0.01778    0.26404    1.000
    N1075    N        0.18154    0.08406    0.36314    1.000
    N1076    N        0.18712    0.23430    0.26330    1.000
    N1077    N        0.20484    0.15758    0.34785    1.000
    N1078    N        0.19369    0.16215    0.27646    1.000
    Si1079   Si       0.16673    0.19617    0.27452    1.000
    N1080    N        0.17127    0.24361    0.45927    1.000
    Si1081   Si       0.17199    0.09945    0.46140    1.000
    N1082    N        0.18011    0.06208    0.43161    1.000
    Si1083   Si       0.21718    0.04453    0.45657    1.000
    N1084    N        0.20456    0.07770    0.48700    1.000
    N1085    N        0.20693    0.17238    0.41741    1.000
    N1086    N        0.16932    0.13956    0.48320    1.000
    N1087    N        0.22012    0.18776    0.49072    1.000
    Si1088   Si       0.18542    0.05445    0.51989    1.000
    N1089    N        0.18749    0.10950    0.59478    1.000
    Si1090   Si       0.21031    0.01926    0.58406    1.000
    N1091    N        0.21323    0.04796    0.55267    1.000
    Si1092   Si       0.21627    0.12986    0.57294    1.000
    N1093    N        0.16799    0.01943    0.49915    1.000
    N1094    N        0.21103    0.04592    0.62087    1.000
    Si1095   Si       0.19123    0.24052    0.67197    1.000
    N1096    N        0.21428    0.13035    0.53022    1.000
    N1097    N        0.21091    0.17168    0.58414    1.000
    N1098    N        0.18425    0.24504    0.57376    1.000
    Si1099   Si       0.19192    0.16357    0.51230    1.000
    Si1100   Si       0.17906    0.20014    0.57363    1.000
    Si1101   Si       0.18617    0.08007    0.62664    1.000
    N1102    N        0.19092    0.05764    0.72353    1.000
    N1103    N        0.18920    0.09505    0.66742    1.000
    Si1104   Si       0.17490    0.02281    0.74458    1.000
    N1105    N        0.20552    0.20376    0.65257    1.000
    N1106    N        0.19485    0.22402    0.71287    1.000
    N1107    N        0.19212    0.09982    0.77679    1.000
    Si1108   Si       0.19124    0.06483    0.86301    1.000
    N1109    N        0.18412    0.02188    0.86570    1.000
    Si1110   Si       0.21623    0.07739    0.75024    1.000
    Si1111   Si       0.22048    0.11294    0.81045    1.000
    N1112    N        0.22372    0.08528    0.84531    1.000
    N1113    N        0.21862    0.21392    0.77737    1.000
    N1114    N        0.20402    0.21484    0.84539    1.000
    N1115    N        0.20896    0.15546    0.81329    1.000
    Si1116   Si       0.19630    0.17031    0.85139    1.000
    Si1117   Si       0.21366    0.17121    0.77343    1.000
    N1118    N        0.17801    0.16352    0.75074    1.000
    Si1119   Si       0.21054    0.24472    0.74869    1.000
    N1120    N        0.19141    0.08256    0.90264    1.000
    Si1121   Si       0.20837    0.02139    0.96845    1.000
    N1122    N        0.18235    0.23109    0.97666    1.000
    Si1123   Si       0.21671    0.23551    0.95082    1.000
    N1124    N        0.17352    0.16466    0.94427    1.000
    N1125    N        0.21066    0.14957    0.88521    1.000
    Si1126   Si       0.21331    0.16312    0.92844    1.000
    N1127    N        0.16638    0.03053    0.96499    1.000
    N1128    N        0.20659    0.25905    0.91561    1.000
    N1129    N        0.19324    0.32522    0.09963    1.000
    N1130    N        0.19896    0.35235    0.02853    1.000
    Si1131   Si       0.17536    0.34652    0.06573    1.000
    N1132    N        0.21797    0.26866    0.04070    1.000
    Si1133   Si       0.18314    0.25772    0.01111    1.000
    N1134    N        0.20523    0.26765    0.12306    1.000
    Si1135   Si       0.17887    0.42578    0.07656    1.000
    N1136    N        0.19843    0.46893    0.06603    1.000
    Si1137   Si       0.21187    0.48892    0.03067    1.000
    Si1138   Si       0.19079    0.49860    0.09764    1.000
    N1139    N        0.21625    0.40590    0.06544    1.000
    N1140    N        0.18853    0.43282    0.12007    1.000
    N1141    N        0.20282    0.32314    0.16347    1.000
    Si1142   Si       0.17634    0.30198    0.13405    1.000
    Si1143   Si       0.18280    0.35634    0.18475    1.000
    N1144    N        0.21516    0.38045    0.20460    1.000
    N1145    N        0.21913    0.26353    0.19793    1.000
    N1146    N        0.18464    0.44152    0.18650    1.000
    N1147    N        0.22291    0.49099    0.12694    1.000
    N1148    N        0.20980    0.50575    0.21805    1.000
    Si1149   Si       0.17953    0.48383    0.19568    1.000
    Si1150   Si       0.22223    0.42393    0.19950    1.000
    Si1151   Si       0.16243    0.42212    0.15331    1.000
    Si1152   Si       0.20206    0.33080    0.31746    1.000
    N1153    N        0.19083    0.31494    0.35688    1.000
    N1154    N        0.18239    0.30844    0.28406    1.000
    N1155    N        0.17931    0.36859    0.31435    1.000
    Si1156   Si       0.19752    0.27197    0.36463    1.000
    Si1157   Si       0.17873    0.26648    0.29342    1.000
    N1158    N        0.17039    0.49019    0.28952    1.000
    N1159    N        0.22281    0.42888    0.30521    1.000
    N1160    N        0.20367    0.48016    0.35208    1.000
    Si1161   Si       0.19472    0.40651    0.33034    1.000
    Si1162   Si       0.20180    0.46864    0.30915    1.000
    N1163    N        0.21731    0.41123    0.36818    1.000
    Si1164   Si       0.21277    0.34479    0.45369    1.000
    Si1165   Si       0.17753    0.33554    0.39396    1.000
    N1166    N        0.21196    0.35542    0.41201    1.000
    Si1167   Si       0.19088    0.27535    0.43814    1.000
    N1168    N        0.18461    0.35551    0.48555    1.000
    N1169    N        0.21709    0.26835    0.40416    1.000
    N1170    N        0.21513    0.30118    0.46420    1.000
    N1171    N        0.21758    0.47098    0.49691    1.000
    Si1172   Si       0.19971    0.45921    0.45849    1.000
    Si1173   Si       0.17377    0.39775    0.47772    1.000
    Si1174   Si       0.19869    0.44890    0.38348    1.000
    N1175    N        0.20944    0.41485    0.45961    1.000
    N1176    N        0.21460    0.47005    0.42053    1.000
    N1177    N        0.20676    0.25680    0.32602    1.000
    Si1178   Si       0.17702    0.35213    0.59162    1.000
    N1179    N        0.21562    0.31853    0.53147    1.000
    Si1180   Si       0.17475    0.33292    0.52240    1.000
    N1181    N        0.22289    0.35322    0.59307    1.000
    N1182    N        0.18213    0.48512    0.55395    1.000
    Si1183   Si       0.19907    0.45163    0.52924    1.000
    Si1184   Si       0.21008    0.46996    0.58705    1.000
    N1185    N        0.17173    0.42039    0.51613    1.000
    N1186    N        0.18918    0.45082    0.61708    1.000
    N1187    N        0.18559    0.28244    0.65877    1.000
    Si1188   Si       0.17183    0.34125    0.70388    1.000
    N1189    N        0.21223    0.32624    0.70023    1.000
    N1190    N        0.17227    0.38479    0.69475    1.000
    Si1191   Si       0.17466    0.45817    0.65754    1.000
    N1192    N        0.16730    0.47222    0.73752    1.000
    N1193    N        0.20611    0.44475    0.68480    1.000
    Si1194   Si       0.20836    0.46245    0.72422    1.000
    Si1195   Si       0.21079    0.40223    0.68903    1.000
    Si1196   Si       0.22544    0.30388    0.66572    1.000
    N1197    N        0.19033    0.31916    0.81281    1.000
    Si1198   Si       0.19899    0.31477    0.85436    1.000
    Si1199   Si       0.19183    0.31454    0.77097    1.000
    N1200    N        0.18277    0.27270    0.76353    1.000
    N1201    N        0.21710    0.38968    0.81888    1.000
    Si1202   Si       0.19595    0.39170    0.85856    1.000
    Si1203   Si       0.20600    0.46777    0.85797    1.000
    Si1204   Si       0.21519    0.42835    0.79983    1.000
    Si1205   Si       0.17174    0.48027    0.78079    1.000
    N1206    N        0.17395    0.43986    0.79850    1.000
    N1207    N        0.20866    0.50365    0.78530    1.000
    N1208    N        0.16639    0.47926    0.85095    1.000
    N1209    N        0.20160    0.35091    0.87777    1.000
    N1210    N        0.20216    0.35675    0.95362    1.000
    Si1211   Si       0.20524    0.33185    0.99132    1.000
    Si1212   Si       0.16737    0.26558    0.90128    1.000
    Si1213   Si       0.22057    0.35358    0.91574    1.000
    N1214    N        0.17815    0.29809    0.99322    1.000
    N1215    N        0.22632    0.44213    0.75813    1.000
    Si1216   Si       0.16541    0.38165    0.96047    1.000
    N1217    N        0.17177    0.41335    0.98906    1.000
    N1218    N        0.20360    0.42779    0.88285    1.000
    N1219    N        0.21412    0.43354    0.94176    1.000
    N1220    N        0.22007    0.49526    0.88973    1.000
    Si1221   Si       0.17792    0.43820    0.91706    1.000
    Si1222   Si       0.21451    0.42720    0.98471    1.000
    N1223    N        0.19857    0.53975    0.08487    1.000
    Si1224   Si       0.18539    0.57675    0.10378    1.000
    N1225    N        0.18086    0.61700    0.08351    1.000
    N1226    N        0.17694    0.51298    0.01608    1.000
    N1227    N        0.17881    0.58008    0.99995    1.000
    Si1228   Si       0.22222    0.59066    0.00995    1.000
    Si1229   Si       0.21499    0.63193    0.10544    1.000
    N1230    N        0.21719    0.63378    0.00348    1.000
    N1231    N        0.19460    0.73941    0.06281    1.000
    Si1232   Si       0.21771    0.72392    0.03217    1.000
    Si1233   Si       0.19497    0.74429    0.16122    1.000
    N1234    N        0.20803    0.75665    0.00131    1.000
    N1235    N        0.19287    0.69687    0.00256    1.000
    N1236    N        0.19110    0.56513    0.19151    1.000
    Si1237   Si       0.20168    0.54602    0.22942    1.000
    N1238    N        0.21443    0.59578    0.13005    1.000
    N1239    N        0.21036    0.67250    0.12148    1.000
    Si1240   Si       0.16588    0.75717    0.08942    1.000
    N1241    N        0.19234    0.65465    0.19181    1.000
    N1242    N        0.17416    0.73259    0.12512    1.000
    N1243    N        0.19495    0.55445    0.33949    1.000
    Si1244   Si       0.21691    0.52206    0.35947    1.000
    Si1245   Si       0.18808    0.56847    0.29764    1.000
    N1246    N        0.17203    0.55675    0.25909    1.000
    N1247    N        0.21763    0.60226    0.29049    1.000
    Si1248   Si       0.17650    0.59199    0.35448    1.000
    Si1249   Si       0.20440    0.64134    0.30409    1.000
    N1250    N        0.18945    0.64428    0.34709    1.000
    Si1251   Si       0.18251    0.68785    0.35377    1.000
    N1252    N        0.21128    0.70208    0.25453    1.000
    Si1253   Si       0.21309    0.74889    0.36265    1.000
    Si1254   Si       0.17163    0.69545    0.27390    1.000
    N1255    N        0.17000    0.65236    0.27965    1.000
    N1256    N        0.17068    0.70665    0.31551    1.000
    N1257    N        0.22171    0.70801    0.35860    1.000
    N1258    N        0.17856    0.75551    0.25094    1.000
    N1259    N        0.19780    0.59825    0.39249    1.000
    Si1260   Si       0.17786    0.57765    0.48176    1.000
    Si1261   Si       0.20180    0.56343    0.41841    1.000
    N1262    N        0.21330    0.57286    0.45849    1.000
    Si1263   Si       0.21578    0.63769    0.38470    1.000
    N1264    N        0.17834    0.71710    0.46037    1.000
    N1265    N        0.20758    0.66594    0.41902    1.000
    Si1266   Si       0.17192    0.68833    0.42648    1.000
    N1267    N        0.21817    0.67018    0.48840    1.000
    Si1268   Si       0.21890    0.74431    0.24630    1.000
    N1269    N        0.19463    0.56299    0.56492    1.000
    Si1270   Si       0.19474    0.52607    0.54019    1.000
    N1271    N        0.18754    0.61124    0.61275    1.000
    Si1272   Si       0.17092    0.57419    0.59977    1.000
    N1273    N        0.18813    0.61467    0.50636    1.000
    N1274    N        0.17054    0.53950    0.50500    1.000
    Si1275   Si       0.17953    0.64133    0.58371    1.000
    N1276    N        0.18618    0.73383    0.58046    1.000
    N1277    N        0.21586    0.65254    0.56093    1.000
    Si1278   Si       0.19026    0.70150    0.49793    1.000
    N1279    N        0.21989    0.72227    0.52331    1.000
    Si1280   Si       0.20767    0.56481    0.68702    1.000
    N1281    N        0.18215    0.54142    0.62762    1.000
    N1282    N        0.21086    0.62693    0.74109    1.000
    N1283    N        0.22176    0.60315    0.67173    1.000
    N1284    N        0.16458    0.55969    0.69070    1.000
    N1285    N        0.20090    0.67054    0.69252    1.000
    Si1286   Si       0.18539    0.74420    0.62447    1.000
    Si1287   Si       0.21652    0.71052    0.68447    1.000
    N1288    N        0.18210    0.73140    0.66643    1.000
    Si1289   Si       0.22441    0.63717    0.52190    1.000
    N1290    N        0.19851    0.58321    0.84970    1.000
    N1291    N        0.17671    0.62407    0.79917    1.000
    Si1292   Si       0.20115    0.58570    0.75364    1.000
    Si1293   Si       0.21495    0.60658    0.81610    1.000
    N1294    N        0.20803    0.68629    0.77843    1.000
    Si1295   Si       0.20206    0.72769    0.75984    1.000
    Si1296   Si       0.18330    0.65223    0.76624    1.000
    Si1297   Si       0.21447    0.54737    0.87148    1.000
    N1298    N        0.19493    0.53412    0.94867    1.000
    N1299    N        0.21242    0.60448    0.93043    1.000
    N1300    N        0.17201    0.54229    0.88699    1.000
    Si1301   Si       0.17016    0.54125    0.98287    1.000
    Si1302   Si       0.16774    0.60944    0.92707    1.000
    Si1303   Si       0.17769    0.73398    0.97977    1.000
    N1304    N        0.17501    0.68244    0.88674    1.000
    Si1305   Si       0.20406    0.69836    0.91416    1.000
    N1306    N        0.19640    0.73265    0.93856    1.000
    Si1307   Si       0.19481    0.66091    0.97790    1.000
    N1308    N        0.21882    0.66868    0.94170    1.000
    N1309    N        0.22516    0.57577    0.78811    1.000
    Si1310   Si       0.18472    0.50956    0.91362    1.000
    N1311    N        0.17434    0.81509    0.02452    1.000
    Si1312   Si       0.21375    0.79803    0.01606    1.000
    N1313    N        0.21000    0.88412    0.07818    1.000
    Si1314   Si       0.16925    0.88519    0.09353    1.000
    N1315    N        0.19880    0.92469    0.01083    1.000
    N1316    N        0.18256    0.97286    0.05804    1.000
    Si1317   Si       0.18998    0.96749    0.01529    1.000
    Si1318   Si       0.20352    0.98524    0.09449    1.000
    Si1319   Si       0.22319    0.90293    0.03959    1.000
    Si1320   Si       0.16940    0.81400    0.13396    1.000
    Si1321   Si       0.21619    0.87038    0.12140    1.000
    N1322    N        0.17507    0.85873    0.12840    1.000
    Si1323   Si       0.18514    0.84935    0.22757    1.000
    N1324    N        0.19614    0.78894    0.15629    1.000
    N1325    N        0.21811    0.83953    0.19951    1.000
    Si1326   Si       0.19053    0.97897    0.17055    1.000
    N1327    N        0.17300    0.98440    0.12585    1.000
    N1328    N        0.19348    0.98022    0.21798    1.000
    N1329    N        0.17104    0.93894    0.17079    1.000
    N1330    N        0.21997    0.90684    0.22078    1.000
    Si1331   Si       0.18108    0.91688    0.20485    1.000
    N1332    N        0.16217    0.87583    0.19864    1.000
    N1333    N        0.19964    0.80043    0.30061    1.000
    N1334    N        0.18810    0.87199    0.26628    1.000
    N1335    N        0.17463    0.76424    0.35260    1.000
    Si1336   Si       0.19237    0.86744    0.36832    1.000
    Si1337   Si       0.17075    0.80537    0.33324    1.000
    Si1338   Si       0.16851    0.79237    0.26847    1.000
    Si1339   Si       0.21957    0.90181    0.26515    1.000
    Si1340   Si       0.17998    0.96273    0.25556    1.000
    N1341    N        0.20830    0.89185    0.33510    1.000
    Si1342   Si       0.19026    0.92851    0.32151    1.000
    N1343    N        0.18630    0.96047    0.35001    1.000
    N1344    N        0.20728    0.93973    0.28198    1.000
    Si1345   Si       0.19937    0.00276    0.35859    1.000
    N1346    N        0.18616    0.82459    0.36964    1.000
    N1347    N        0.22139    0.87162    0.39994    1.000
    Si1348   Si       0.20191    0.86290    0.43783    1.000
    Si1349   Si       0.18456    0.79841    0.40366    1.000
    Si1350   Si       0.21802    0.79798    0.47282    1.000
    N1351    N        0.20228    0.81910    0.43832    1.000
    N1352    N        0.21610    0.76739    0.40220    1.000
    N1353    N        0.17676    0.77908    0.48664    1.000
    N1354    N        0.19867    0.99907    0.44293    1.000
    N1355    N        0.19318    0.95043    0.47942    1.000
    Si1356   Si       0.20112    0.99072    0.48697    1.000
    Si1357   Si       0.19629    0.95580    0.43748    1.000
    N1358    N        0.17804    0.80798    0.55862    1.000
    N1359    N        0.17190    0.87820    0.57747    1.000
    Si1360   Si       0.22180    0.81298    0.54702    1.000
    Si1361   Si       0.21420    0.88171    0.57014    1.000
    N1362    N        0.20437    0.97562    0.65690    1.000
    N1363    N        0.19743    0.83130    0.62166    1.000
    N1364    N        0.21296    0.89195    0.52949    1.000
    Si1365   Si       0.19083    0.92595    0.51358    1.000
    N1366    N        0.19993    0.95757    0.54429    1.000
    Si1367   Si       0.19526    0.84888    0.66319    1.000
    N1368    N        0.19751    0.86656    0.70548    1.000
    Si1369   Si       0.19706    0.84643    0.74296    1.000
    Si1370   Si       0.22028    0.96225    0.73286    1.000
    Si1371   Si       0.17740    0.90484    0.69443    1.000
    N1372    N        0.19053    0.94115    0.71191    1.000
    N1373    N        0.18164    0.89102    0.65197    1.000
    Si1374   Si       0.17174    0.97018    0.68386    1.000
    N1375    N        0.16785    0.00863    0.58142    1.000
    Si1376   Si       0.18282    0.77179    0.81730    1.000
    N1377    N        0.20872    0.76811    0.85109    1.000
    N1378    N        0.18259    0.86937    0.83252    1.000
    N1379    N        0.19817    0.87806    0.77147    1.000
    N1380    N        0.21016    0.76600    0.78271    1.000
    N1381    N        0.18337    0.93220    0.81936    1.000
    Si1382   Si       0.19541    0.96433    0.79235    1.000
    Si1383   Si       0.19094    0.92368    0.86200    1.000
    Si1384   Si       0.17025    0.89578    0.79981    1.000
    Si1385   Si       0.21756    0.99768    0.85677    1.000
    N1386    N        0.21352    0.00191    0.75051    1.000
    Si1387   Si       0.17371    0.92259    0.97239    1.000
    Si1388   Si       0.20693    0.80439    0.87587    1.000
    N1389    N        0.21914    0.86326    0.94717    1.000
    Si1390   Si       0.20726    0.82081    0.94662    1.000
    N1391    N        0.16838    0.82124    0.88232    1.000
    N1392    N        0.21883    0.95845    0.87908    1.000
    N1393    N        0.16658    0.81154    0.95179    1.000
    N1394    N        0.20173    0.92933    0.94038    1.000
    Si1395   Si       0.20084    0.96724    0.91957    1.000
    N1396    N        0.22041    0.89464    0.87714    1.000
    N1397    N        0.21982    0.99148    0.99678    1.000
    Si1398   Si       0.25744    0.03084    0.06564    1.000
    N1399    N        0.23255    0.06434    0.05176    1.000
    N1400    N        0.22921    0.11602    0.00789    1.000
    Si1401   Si       0.27031    0.16283    0.13737    1.000
    N1402    N        0.22271    0.09438    0.11853    1.000
    Si1403   Si       0.23414    0.19170    0.07872    1.000
    N1404    N        0.24914    0.16634    0.04767    1.000
    N1405    N        0.25455    0.22940    0.07987    1.000
    N1406    N        0.23592    0.16334    0.11129    1.000
    Si1407   Si       0.27199    0.06141    0.19559    1.000
    N1408    N        0.24611    0.09785    0.18822    1.000
    Si1409   Si       0.25913    0.09568    0.14419    1.000
    N1410    N        0.24924    0.02350    0.20091    1.000
    N1411    N        0.27772    0.05893    0.15273    1.000
    Si1412   Si       0.26492    0.13132    0.21085    1.000
    N1413    N        0.26014    0.24377    0.15109    1.000
    N1414    N        0.25473    0.15940    0.17943    1.000
    N1415    N        0.24913    0.06595    0.34831    1.000
    N1416    N        0.26700    0.06450    0.27116    1.000
    Si1417   Si       0.25815    0.02257    0.27698    1.000
    Si1418   Si       0.25266    0.10519    0.28379    1.000
    Si1419   Si       0.26598    0.02572    0.35036    1.000
    Si1420   Si       0.26990    0.09947    0.35687    1.000
    N1421    N        0.27750    0.11701    0.31673    1.000
    N1422    N        0.25255    0.13502    0.25337    1.000
    N1423    N        0.24520    0.19776    0.29740    1.000
    Si1424   Si       0.24262    0.24274    0.30418    1.000
    Si1425   Si       0.23411    0.17324    0.26241    1.000
    N1426    N        0.27517    0.24060    0.33118    1.000
    Si1427   Si       0.27482    0.19579    0.33034    1.000
    Si1428   Si       0.25773    0.10255    0.42819    1.000
    N1429    N        0.25188    0.06003    0.43635    1.000
    N1430    N        0.25023    0.12062    0.38940    1.000
    N1431    N        0.23256    0.01934    0.49109    1.000
    N1432    N        0.23569    0.12574    0.46053    1.000
    N1433    N        0.26694    0.18457    0.37233    1.000
    N1434    N        0.25355    0.24225    0.46068    1.000
    Si1435   Si       0.24784    0.22117    0.49988    1.000
    Si1436   Si       0.23028    0.16973    0.45291    1.000
    Si1437   Si       0.23101    0.16053    0.38103    1.000
    N1438    N        0.27252    0.17721    0.43983    1.000
    Si1439   Si       0.25585    0.06376    0.55713    1.000
    N1440    N        0.25144    0.10507    0.57744    1.000
    N1441    N        0.26865    0.08022    0.51750    1.000
    N1442    N        0.27638    0.05208    0.60333    1.000
    Si1443   Si       0.27334    0.09625    0.61290    1.000
    N1444    N        0.27620    0.02486    0.54175    1.000
    Si1445   Si       0.26940    0.03924    0.50173    1.000
    Si1446   Si       0.23638    0.10913    0.50022    1.000
    N1447    N        0.28391    0.17307    0.57474    1.000
    N1448    N        0.24577    0.22928    0.59313    1.000
    Si1449   Si       0.25012    0.18726    0.59595    1.000
    N1450    N        0.23393    0.25456    0.52495    1.000
    Si1451   Si       0.22561    0.25676    0.56683    1.000
    N1452    N        0.28415    0.14126    0.50386    1.000
    N1453    N        0.28642    0.03253    0.72224    1.000
    Si1454   Si       0.23003    0.10067    0.68173    1.000
    N1455    N        0.24969    0.09365    0.72251    1.000
    N1456    N        0.25585    0.08701    0.65131    1.000
    Si1457   Si       0.25147    0.04487    0.63904    1.000
    N1458    N        0.28332    0.20833    0.51964    1.000
    Si1459   Si       0.27856    0.06494    0.74577    1.000
    N1460    N        0.23428    0.14560    0.68935    1.000
    Si1461   Si       0.26696    0.25072    0.69761    1.000
    Si1462   Si       0.26249    0.13724    0.72391    1.000
    N1463    N        0.26801    0.17509    0.63290    1.000
    Si1464   Si       0.24163    0.18172    0.66879    1.000
    N1465    N        0.26483    0.20675    0.69492    1.000
    N1466    N        0.25150    0.25854    0.73671    1.000
    N1467    N        0.24522    0.05483    0.77418    1.000
    Si1468   Si       0.26745    0.09040    0.84582    1.000
    N1469    N        0.26484    0.11857    0.81403    1.000
    N1470    N        0.25508    0.01529    0.86553    1.000
    Si1471   Si       0.24536    0.01124    0.78240    1.000
    N1472    N        0.25356    0.15881    0.76055    1.000
    N1473    N        0.26777    0.19162    0.83009    1.000
    Si1474   Si       0.23736    0.22032    0.81785    1.000
    Si1475   Si       0.27733    0.15797    0.79849    1.000
    N1476    N        0.26006    0.25481    0.80776    1.000
    Si1477   Si       0.27906    0.24612    0.76929    1.000
    Si1478   Si       0.22613    0.10970    0.90051    1.000
    N1479    N        0.26753    0.10551    0.88452    1.000
    N1480    N        0.23019    0.05613    0.97740    1.000
    Si1481   Si       0.25685    0.12288    0.97584    1.000
    Si1482   Si       0.27327    0.05514    0.96595    1.000
    N1483    N        0.23345    0.12719    0.94112    1.000
    N1484    N        0.23527    0.19839    0.94240    1.000
    N1485    N        0.27906    0.15968    0.98564    1.000
    Si1486   Si       0.27816    0.18561    0.95029    1.000
    N1487    N        0.24887    0.25608    0.97371    1.000
    N1488    N        0.26045    0.29672    0.09652    1.000
    Si1489   Si       0.24903    0.27650    0.01123    1.000
    N1490    N        0.26360    0.36644    0.06655    1.000
    Si1491   Si       0.23270    0.37666    0.03677    1.000
    Si1492   Si       0.22815    0.26513    0.08525    1.000
    Si1493   Si       0.24310    0.39223    0.09724    1.000
    N1494    N        0.26477    0.42988    0.10991    1.000
    N1495    N        0.24488    0.39842    0.99985    1.000
    Si1496   Si       0.23230    0.32100    0.12420    1.000
    N1497    N        0.25121    0.36292    0.12823    1.000
    Si1498   Si       0.23275    0.30371    0.19147    1.000
    N1499    N        0.24772    0.32039    0.22849    1.000
    Si1500   Si       0.25278    0.36389    0.22109    1.000
    N1501    N        0.26380    0.31039    0.15981    1.000
    Si1502   Si       0.28056    0.27725    0.13182    1.000
    Si1503   Si       0.22732    0.44906    0.12965    1.000
    N1504    N        0.23491    0.43970    0.23763    1.000
    N1505    N        0.24462    0.42993    0.16511    1.000
    Si1506   Si       0.23894    0.48295    0.24176    1.000
    N1507    N        0.27896    0.49845    0.22835    1.000
    N1508    N        0.23126    0.46239    0.00159    1.000
    N1509    N        0.24336    0.32542    0.30785    1.000
    Si1510   Si       0.25698    0.30618    0.26900    1.000
    N1511    N        0.24653    0.26311    0.26678    1.000
    N1512    N        0.26418    0.38125    0.25976    1.000
    Si1513   Si       0.24896    0.42102    0.27371    1.000
    N1514    N        0.23683    0.48853    0.28459    1.000
    Si1515   Si       0.27054    0.50558    0.30501    1.000
    N1516    N        0.25212    0.36335    0.46276    1.000
    Si1517   Si       0.25698    0.26925    0.42862    1.000
    N1518    N        0.28186    0.36453    0.38247    1.000
    N1519    N        0.27836    0.30914    0.43140    1.000
    N1520    N        0.27592    0.48363    0.39732    1.000
    Si1521   Si       0.24162    0.38397    0.39282    1.000
    N1522    N        0.26091    0.41803    0.41654    1.000
    Si1523   Si       0.24535    0.50068    0.42475    1.000
    Si1524   Si       0.25265    0.40712    0.45756    1.000
    Si1525   Si       0.24082    0.32681    0.56573    1.000
    N1526    N        0.24264    0.28948    0.58824    1.000
    Si1527   Si       0.23366    0.29175    0.50093    1.000
    Si1528   Si       0.26061    0.26255    0.61998    1.000
    N1529    N        0.27547    0.30454    0.49960    1.000
    N1530    N        0.28202    0.33638    0.55921    1.000
    N1531    N        0.28057    0.47545    0.52566    1.000
    Si1532   Si       0.27431    0.44432    0.55576    1.000
    N1533    N        0.23482    0.50228    0.60334    1.000
    Si1534   Si       0.25087    0.49707    0.50338    1.000
    N1535    N        0.22994    0.44295    0.55872    1.000
    Si1536   Si       0.27374    0.48950    0.62030    1.000
    Si1537   Si       0.25088    0.36125    0.62773    1.000
    Si1538   Si       0.24490    0.34590    0.72608    1.000
    N1539    N        0.26180    0.32494    0.64796    1.000
    N1540    N        0.24531    0.26608    0.66191    1.000
    N1541    N        0.27793    0.48149    0.66272    1.000
    N1542    N        0.28233    0.45366    0.59727    1.000
    N1543    N        0.23841    0.38839    0.72051    1.000
    N1544    N        0.23114    0.39013    0.65428    1.000
    N1545    N        0.24094    0.49038    0.72288    1.000
    N1546    N        0.26132    0.33472    0.82611    1.000
    Si1547   Si       0.26184    0.29000    0.82865    1.000
    Si1548   Si       0.24151    0.36112    0.79844    1.000
    N1549    N        0.23168    0.28890    0.86039    1.000
    N1550    N        0.22870    0.33520    0.76478    1.000
    N1551    N        0.26989    0.39262    0.78015    1.000
    Si1552   Si       0.24709    0.48592    0.76626    1.000
    N1553    N        0.23279    0.45575    0.82877    1.000
    Si1554   Si       0.27810    0.45924    0.82510    1.000
    Si1555   Si       0.26247    0.49247    0.90363    1.000
    N1556    N        0.28109    0.46232    0.78064    1.000
    N1557    N        0.24813    0.31779    0.92356    1.000
    Si1558   Si       0.24250    0.28074    0.90264    1.000
    Si1559   Si       0.27217    0.32249    0.95886    1.000
    N1560    N        0.27934    0.25663    0.90739    1.000
    N1561    N        0.24607    0.31655    0.99452    1.000
    N1562    N        0.25032    0.38478    0.90863    1.000
    Si1563   Si       0.23944    0.42511    0.90742    1.000
    Si1564   Si       0.27215    0.47115    0.98106    1.000
    N1565    N        0.27152    0.44967    0.89386    1.000
    N1566    N        0.27321    0.49580    0.94672    1.000
    Si1567   Si       0.25933    0.41744    0.74548    1.000
    N1568    N        0.26898    0.53473    0.10138    1.000
    Si1569   Si       0.24021    0.54433    0.07144    1.000
    N1570    N        0.24252    0.58048    0.04835    1.000
    Si1571   Si       0.27279    0.60504    0.06594    1.000
    N1572    N        0.24712    0.51076    0.04501    1.000
    N1573    N        0.28223    0.63353    0.03249    1.000
    N1574    N        0.25730    0.63548    0.09019    1.000
    Si1575   Si       0.27261    0.67633    0.07586    1.000
    Si1576   Si       0.24911    0.65803    0.01980    1.000
    N1577    N        0.25960    0.74369    0.03897    1.000
    N1578    N        0.23726    0.68519    0.05107    1.000
    N1579    N        0.28172    0.69055    0.11470    1.000
    Si1580   Si       0.24692    0.69006    0.13930    1.000
    Si1581   Si       0.27935    0.54006    0.24254    1.000
    Si1582   Si       0.25883    0.51323    0.13909    1.000
    N1583    N        0.24932    0.60592    0.18907    1.000
    N1584    N        0.25756    0.54940    0.16649    1.000
    N1585    N        0.24048    0.56130    0.24111    1.000
    Si1586   Si       0.22293    0.57821    0.16754    1.000
    N1587    N        0.26236    0.66814    0.17499    1.000
    Si1588   Si       0.23274    0.64517    0.19816    1.000
    N1589    N        0.24102    0.64409    0.24202    1.000
    N1590    N        0.23898    0.73133    0.14889    1.000
    Si1591   Si       0.27240    0.75692    0.14056    1.000
    N1592    N        0.25657    0.52186    0.34218    1.000
    Si1593   Si       0.24493    0.60302    0.25521    1.000
    Si1594   Si       0.25330    0.68087    0.34639    1.000
    Si1595   Si       0.24785    0.67915    0.26531    1.000
    N1596    N        0.23839    0.66912    0.30681    1.000
    N1597    N        0.25100    0.75144    0.27445    1.000
    Si1598   Si       0.28286    0.74827    0.34936    1.000
    N1599    N        0.25706    0.63069    0.45042    1.000
    Si1600   Si       0.24441    0.59570    0.47479    1.000
    N1601    N        0.26307    0.50906    0.46329    1.000
    N1602    N        0.26239    0.70372    0.46082    1.000
    Si1603   Si       0.27807    0.74251    0.47068    1.000
    Si1604   Si       0.23832    0.66801    0.44958    1.000
    N1605    N        0.25592    0.64547    0.37188    1.000
    N1606    N        0.28387    0.59273    0.33652    1.000
    N1607    N        0.22749    0.53428    0.40095    1.000
    Si1608   Si       0.24162    0.56746    0.55517    1.000
    N1609    N        0.24754    0.59787    0.52111    1.000
    N1610    N        0.23791    0.52858    0.53108    1.000
    N1611    N        0.24411    0.57383    0.60374    1.000
    Si1612   Si       0.25515    0.66628    0.57803    1.000
    N1613    N        0.25023    0.71018    0.58756    1.000
    Si1614   Si       0.25373    0.69772    0.50409    1.000
    N1615    N        0.26672    0.66576    0.53061    1.000
    N1616    N        0.25224    0.64211    0.61642    1.000
    Si1617   Si       0.22624    0.63598    0.70091    1.000
    Si1618   Si       0.22658    0.73787    0.56521    1.000
    Si1619   Si       0.26529    0.55248    0.73913    1.000
    N1620    N        0.23210    0.53322    0.66699    1.000
    Si1621   Si       0.22730    0.60752    0.62878    1.000
    N1622    N        0.22429    0.56252    0.72607    1.000
    Si1623   Si       0.25908    0.50928    0.68991    1.000
    Si1624   Si       0.22546    0.53939    0.62307    1.000
    N1625    N        0.22719    0.72821    0.72293    1.000
    Si1626   Si       0.25940    0.73187    0.62434    1.000
    Si1627   Si       0.28179    0.68094    0.68453    1.000
    Si1628   Si       0.26790    0.73911    0.72502    1.000
    N1629    N        0.26860    0.64342    0.70120    1.000
    N1630    N        0.25449    0.70778    0.66412    1.000
    N1631    N        0.26708    0.52454    0.77437    1.000
    N1632    N        0.24494    0.53449    0.84306    1.000
    Si1633   Si       0.23557    0.53743    0.80051    1.000
    Si1634   Si       0.27473    0.63330    0.85620    1.000
    Si1635   Si       0.23302    0.75449    0.92637    1.000
    N1636    N        0.24406    0.63833    0.82386    1.000
    N1637    N        0.24762    0.71437    0.82592    1.000
    Si1638   Si       0.24238    0.74127    0.85831    1.000
    Si1639   Si       0.24195    0.67750    0.80412    1.000
    N1640    N        0.27371    0.75671    0.76537    1.000
    Si1641   Si       0.27776    0.72779    0.79701    1.000
    Si1642   Si       0.27669    0.69553    0.89873    1.000
    Si1643   Si       0.27512    0.55018    0.86975    1.000
    N1644    N        0.24399    0.55200    0.90281    1.000
    N1645    N        0.24914    0.57561    0.97784    1.000
    N1646    N        0.27961    0.62972    0.95478    1.000
    Si1647   Si       0.22660    0.56449    0.94108    1.000
    Si1648   Si       0.24456    0.63539    0.92853    1.000
    N1649    N        0.26335    0.65288    0.89172    1.000
    N1650    N        0.26952    0.68660    0.99364    1.000
    N1651    N        0.24101    0.72042    0.89720    1.000
    N1652    N        0.23995    0.80547    0.05165    1.000
    N1653    N        0.23793    0.83787    0.10749    1.000
    Si1654   Si       0.23386    0.84652    0.06536    1.000
    Si1655   Si       0.27445    0.77909    0.06001    1.000
    N1656    N        0.23746    0.86520    0.02373    1.000
    N1657    N        0.27880    0.77967    0.10244    1.000
    N1658    N        0.23541    0.95450    0.09999    1.000
    Si1659   Si       0.26565    0.95650    0.07173    1.000
    N1660    N        0.25877    0.99185    0.04684    1.000
    N1661    N        0.25970    0.92558    0.04148    1.000
    Si1662   Si       0.26198    0.99302    0.00482    1.000
    Si1663   Si       0.27118    0.81721    0.12251    1.000
    N1664    N        0.26328    0.79717    0.16012    1.000
    Si1665   Si       0.23577    0.87972    0.19219    1.000
    N1666    N        0.27893    0.87641    0.19268    1.000
    N1667    N        0.22883    0.76394    0.20894    1.000
    N1668    N        0.23073    0.96573    0.16407    1.000
    Si1669   Si       0.26466    0.98960    0.17815    1.000
    Si1670   Si       0.24331    0.93434    0.13783    1.000
    N1671    N        0.22793    0.89641    0.15155    1.000
    Si1672   Si       0.22858    0.79947    0.18459    1.000
    Si1673   Si       0.24083    0.78659    0.29659    1.000
    N1674    N        0.27479    0.86708    0.35101    1.000
    N1675    N        0.27134    0.81108    0.27675    1.000
    N1676    N        0.24418    0.76829    0.33761    1.000
    N1677    N        0.25701    0.89346    0.28692    1.000
    Si1678   Si       0.25155    0.89585    0.33166    1.000
    N1679    N        0.25936    0.93709    0.34648    1.000
    N1680    N        0.26736    0.00318    0.31415    1.000
    Si1681   Si       0.25456    0.78222    0.41491    1.000
    N1682    N        0.25102    0.77530    0.45876    1.000
    Si1683   Si       0.26196    0.86138    0.39255    1.000
    N1684    N        0.27011    0.82001    0.40315    1.000
    N1685    N        0.22877    0.88471    0.46388    1.000
    N1686    N        0.23378    0.94213    0.41771    1.000
    N1687    N        0.23973    0.99717    0.37517    1.000
    Si1688   Si       0.25483    0.91133    0.44213    1.000
    Si1689   Si       0.25688    0.95822    0.38466    1.000
    Si1690   Si       0.28133    0.96339    0.31696    1.000
    N1691    N        0.24456    0.77584    0.55376    1.000
    N1692    N        0.23793    0.84674    0.56904    1.000
    N1693    N        0.27805    0.87627    0.50976    1.000
    Si1694   Si       0.23658    0.86701    0.50384    1.000
    Si1695   Si       0.27708    0.84306    0.58823    1.000
    Si1696   Si       0.23778    0.95190    0.56565    1.000
    N1697    N        0.23675    0.98626    0.59437    1.000
    N1698    N        0.27463    0.94868    0.54098    1.000
    N1699    N        0.23105    0.91486    0.58959    1.000
    N1700    N        0.26969    0.81808    0.62207    1.000
    Si1701   Si       0.25303    0.81283    0.70671    1.000
    Si1702   Si       0.22957    0.80340    0.63150    1.000
    N1703    N        0.27722    0.77657    0.70124    1.000
    N1704    N        0.25550    0.87671    0.64929    1.000
    Si1705   Si       0.28102    0.84421    0.65482    1.000
    N1706    N        0.22801    0.81738    0.67284    1.000
    N1707    N        0.23135    0.81632    0.74384    1.000
    N1708    N        0.26166    0.96422    0.71723    1.000
    Si1709   Si       0.28048    0.99719    0.69670    1.000
    Si1710   Si       0.27962    0.93195    0.73918    1.000
    Si1711   Si       0.24164    0.97614    0.63779    1.000
    Si1712   Si       0.26135    0.90611    0.61863    1.000
    N1713    N        0.27087    0.94124    0.64216    1.000
    Si1714   Si       0.28442    0.77051    0.53702    1.000
    N1715    N        0.28627    0.84249    0.69918    1.000
    N1716    N        0.22502    0.82429    0.50583    1.000
    N1717    N        0.26016    0.00999    0.66036    1.000
    N1718    N        0.22676    0.76102    0.62405    1.000
    Si1719   Si       0.24579    0.78927    0.77611    1.000
    N1720    N        0.23663    0.82990    0.85727    1.000
    Si1721   Si       0.27399    0.81113    0.84548    1.000
    N1722    N        0.27502    0.80518    0.80398    1.000
    N1723    N        0.27720    0.76971    0.86126    1.000
    Si1724   Si       0.22635    0.86810    0.84203    1.000
    N1725    N        0.25422    0.89223    0.81343    1.000
    Si1726   Si       0.23510    0.89925    0.77502    1.000
    N1727    N        0.22697    0.94085    0.76955    1.000
    N1728    N        0.26360    0.89022    0.74243    1.000
    Si1729   Si       0.27380    0.80134    0.96432    1.000
    N1730    N        0.23607    0.81405    0.98145    1.000
    Si1731   Si       0.24962    0.85723    0.97949    1.000
    N1732    N        0.26878    0.76213    0.94762    1.000
    Si1733   Si       0.26098    0.00675    0.90786    1.000
    N1734    N        0.28124    0.96166    0.98380    1.000
    Si1735   Si       0.26034    0.93857    0.88680    1.000
    N1736    N        0.26407    0.90813    0.91842    1.000
    N1737    N        0.27464    0.89431    0.98075    1.000
    N1738    N        0.22088    0.99189    0.81430    1.000
    N1739    N        0.22135    0.79564    0.91616    1.000
    Si1740   Si       0.22164    0.89573    0.92003    1.000
    N1741    N        0.22309    0.00292    0.93056    1.000
    N1742    N        0.29598    0.03545    0.08306    1.000
    Si1743   Si       0.31786    0.12323    0.09449    1.000
    Si1744   Si       0.33653    0.04931    0.07494    1.000
    Si1745   Si       0.32982    0.03510    0.00303    1.000
    N1746    N        0.33855    0.06499    0.03238    1.000
    N1747    N        0.33796    0.08498    0.09804    1.000
    N1748    N        0.28674    0.02902    0.99863    1.000
    N1749    N        0.31036    0.12974    0.04782    1.000
    N1750    N        0.30408    0.20198    0.03339    1.000
    Si1751   Si       0.29162    0.23633    0.05717    1.000
    Si1752   Si       0.32931    0.21670    0.00024    1.000
    Si1753   Si       0.28729    0.16246    0.03013    1.000
    Si1754   Si       0.29613    0.22409    0.16540    1.000
    Si1755   Si       0.29709    0.03063    0.12529    1.000
    N1756    N        0.30830    0.06743    0.21818    1.000
    Si1757   Si       0.33632    0.09820    0.20930    1.000
    N1758    N        0.28794    0.12321    0.12681    1.000
    Si1759   Si       0.33147    0.22957    0.24028    1.000
    N1760    N        0.31226    0.21107    0.20268    1.000
    Si1761   Si       0.33075    0.17299    0.20628    1.000
    N1762    N        0.30931    0.13388    0.21244    1.000
    N1763    N        0.30002    0.19171    0.13701    1.000
    N1764    N        0.31546    0.09308    0.35719    1.000
    Si1765   Si       0.31265    0.04938    0.25644    1.000
    Si1766   Si       0.31943    0.10484    0.31448    1.000
    N1767    N        0.33118    0.06747    0.29424    1.000
    N1768    N        0.29426    0.01093    0.25508    1.000
    N1769    N        0.30546    0.02674    0.36945    1.000
    N1770    N        0.31419    0.19132    0.31591    1.000
    N1771    N        0.33734    0.24560    0.28033    1.000
    N1772    N        0.34007    0.24398    0.35635    1.000
    Si1773   Si       0.33088    0.05924    0.38133    1.000
    Si1774   Si       0.31750    0.07541    0.45859    1.000
    N1775    N        0.30505    0.03700    0.47981    1.000
    N1776    N        0.29726    0.11021    0.44231    1.000
    N1777    N        0.33511    0.09652    0.49322    1.000
    N1778    N        0.33125    0.24528    0.49321    1.000
    Si1779   Si       0.28516    0.20427    0.40741    1.000
    Si1780   Si       0.29461    0.14919    0.46227    1.000
    N1781    N        0.32811    0.21163    0.42099    1.000
    Si1782   Si       0.33515    0.21518    0.46407    1.000
    N1783    N        0.32978    0.17312    0.47311    1.000
    Si1784   Si       0.34240    0.22470    0.31769    1.000
    N1785    N        0.33911    0.06320    0.42400    1.000
    N1786    N        0.28154    0.24824    0.39892    1.000
    Si1787   Si       0.31690    0.04014    0.59904    1.000
    Si1788   Si       0.30434    0.10622    0.52193    1.000
    N1789    N        0.30919    0.11652    0.61103    1.000
    N1790    N        0.33622    0.06783    0.56992    1.000
    N1791    N        0.32596    0.13213    0.54973    1.000
    Si1792   Si       0.30265    0.15996    0.61118    1.000
    Si1793   Si       0.31541    0.23378    0.53241    1.000
    Si1794   Si       0.30413    0.17232    0.53521    1.000
    N1795    N        0.33981    0.20008    0.54754    1.000
    N1796    N        0.33978    0.17963    0.61739    1.000
    N1797    N        0.30356    0.14765    0.71112    1.000
    N1798    N        0.33755    0.03991    0.63799    1.000
    N1799    N        0.33869    0.08383    0.69921    1.000
    Si1800   Si       0.34059    0.12746    0.70168    1.000
    N1801    N        0.33154    0.20737    0.68268    1.000
    Si1802   Si       0.34239    0.24819    0.69223    1.000
    Si1803   Si       0.30254    0.19339    0.71235    1.000
    Si1804   Si       0.34199    0.10847    0.58312    1.000
    N1805    N        0.30272    0.21520    0.75111    1.000
    N1806    N        0.31447    0.08025    0.76745    1.000
    Si1807   Si       0.33019    0.07610    0.80874    1.000
    N1808    N        0.29784    0.06272    0.83303    1.000
    Si1809   Si       0.29018    0.02062    0.83945    1.000
    N1810    N        0.31916    0.16478    0.79180    1.000
    N1811    N        0.31405    0.14933    0.85906    1.000
    Si1812   Si       0.33698    0.20109    0.77539    1.000
    Si1813   Si       0.29767    0.18942    0.86739    1.000
    N1814    N        0.34051    0.23505    0.80379    1.000
    N1815    N        0.32559    0.22260    0.86948    1.000
    Si1816   Si       0.34126    0.15224    0.82577    1.000
    Si1817   Si       0.28540    0.25279    0.95123    1.000
    Si1818   Si       0.32911    0.02986    0.92854    1.000
    N1819    N        0.33077    0.10664    0.91541    1.000
    Si1820   Si       0.32881    0.09834    0.95954    1.000
    N1821    N        0.28626    0.03559    0.92845    1.000
    N1822    N        0.33876    0.05411    0.96279    1.000
    N1823    N        0.28663    0.09521    0.96724    1.000
    Si1824   Si       0.30012    0.13165    0.89536    1.000
    N1825    N        0.30674    0.21713    0.96145    1.000
    N1826    N        0.28707    0.17219    0.90973    1.000
    N1827    N        0.31576    0.33097    0.05847    1.000
    Si1828   Si       0.30267    0.36148    0.08529    1.000
    Si1829   Si       0.29507    0.29478    0.07104    1.000
    Si1830   Si       0.32185    0.28895    0.00207    1.000
    Si1831   Si       0.33745    0.35425    0.02745    1.000
    N1832    N        0.28790    0.27278    0.03059    1.000
    N1833    N        0.31341    0.25862    0.08774    1.000
    N1834    N        0.32265    0.38916    0.00732    1.000
    Si1835   Si       0.30459    0.43215    0.09457    1.000
    N1836    N        0.32282    0.39833    0.07542    1.000
    N1837    N        0.30557    0.46729    0.07088    1.000
    N1838    N        0.30006    0.49255    0.00690    1.000
    Si1839   Si       0.28979    0.50155    0.04781    1.000
    N1840    N        0.31707    0.35196    0.12771    1.000
    N1841    N        0.33032    0.27306    0.22711    1.000
    N1842    N        0.28852    0.37038    0.19398    1.000
    N1843    N        0.31851    0.26046    0.15216    1.000
    Si1844   Si       0.28509    0.35019    0.15526    1.000
    Si1845   Si       0.28604    0.43853    0.15428    1.000
    Si1846   Si       0.31923    0.39832    0.20582    1.000
    N1847    N        0.32250    0.42939    0.13460    1.000
    N1848    N        0.30316    0.43774    0.19655    1.000
    Si1849   Si       0.30292    0.48061    0.19726    1.000
    N1850    N        0.28484    0.48344    0.15608    1.000
    N1851    N        0.30095    0.36634    0.31698    1.000
    N1852    N        0.29960    0.30808    0.28332    1.000
    N1853    N        0.29250    0.30443    0.35860    1.000
    Si1854   Si       0.33426    0.28774    0.26825    1.000
    Si1855   Si       0.29685    0.26166    0.36106    1.000
    Si1856   Si       0.28637    0.32685    0.32107    1.000
    Si1857   Si       0.30721    0.38438    0.35576    1.000
    Si1858   Si       0.30177    0.38806    0.27994    1.000
    N1859    N        0.30519    0.48628    0.32627    1.000
    N1860    N        0.29792    0.42700    0.36040    1.000
    Si1861   Si       0.31418    0.44409    0.32339    1.000
    Si1862   Si       0.28362    0.33488    0.46894    1.000
    N1863    N        0.33160    0.39806    0.24751    1.000
    N1864    N        0.28781    0.43063    0.29021    1.000
    Si1865   Si       0.29891    0.32654    0.39599    1.000
    N1866    N        0.31507    0.36010    0.48765    1.000
    N1867    N        0.34159    0.33086    0.40705    1.000
    Si1868   Si       0.32437    0.44406    0.46380    1.000
    N1869    N        0.33378    0.48390    0.47900    1.000
    Si1870   Si       0.28943    0.44307    0.39910    1.000
    N1871    N        0.32824    0.44555    0.42026    1.000
    N1872    N        0.28692    0.42535    0.47583    1.000
    Si1873   Si       0.29948    0.30570    0.53554    1.000
    Si1874   Si       0.30259    0.37240    0.57187    1.000
    Si1875   Si       0.33214    0.26915    0.59765    1.000
    N1876    N        0.31052    0.26943    0.55855    1.000
    N1877    N        0.28646    0.38554    0.60994    1.000
    N1878    N        0.29498    0.40511    0.54220    1.000
    Si1879   Si       0.31956    0.49443    0.51862    1.000
    Si1880   Si       0.30817    0.42358    0.61718    1.000
    Si1881   Si       0.31174    0.39841    0.50413    1.000
    N1882    N        0.32090    0.42358    0.65863    1.000
    N1883    N        0.34051    0.49905    0.55485    1.000
    N1884    N        0.30131    0.27239    0.62663    1.000
    N1885    N        0.33074    0.33167    0.66200    1.000
    N1886    N        0.30636    0.27291    0.69419    1.000
    Si1887   Si       0.29951    0.30201    0.65863    1.000
    Si1888   Si       0.30504    0.29869    0.73069    1.000
    Si1889   Si       0.32757    0.35232    0.70060    1.000
    N1890    N        0.28748    0.33739    0.71694    1.000
    N1891    N        0.29139    0.43694    0.72242    1.000
    N1892    N        0.33955    0.48173    0.69419    1.000
    Si1893   Si       0.30555    0.45515    0.68507    1.000
    N1894    N        0.34187    0.31476    0.52828    1.000
    N1895    N        0.30415    0.28816    0.84185    1.000
    N1896    N        0.32220    0.36001    0.81662    1.000
    Si1897   Si       0.29969    0.33380    0.84272    1.000
    N1898    N        0.30482    0.28245    0.76973    1.000
    Si1899   Si       0.32903    0.27807    0.80550    1.000
    Si1900   Si       0.30789    0.39742    0.80162    1.000
    N1901    N        0.30287    0.49363    0.83198    1.000
    N1902    N        0.30133    0.42469    0.83620    1.000
    Si1903   Si       0.31676    0.45038    0.75659    1.000
    N1904    N        0.33488    0.48829    0.76362    1.000
    Si1905   Si       0.32880    0.49984    0.86655    1.000
    N1906    N        0.33481    0.41416    0.77073    1.000
    Si1907   Si       0.30613    0.50878    0.79138    1.000
    N1908    N        0.30735    0.34093    0.88423    1.000
    N1909    N        0.30144    0.29149    0.96353    1.000
    Si1910   Si       0.29055    0.36984    0.91341    1.000
    Si1911   Si       0.31309    0.26270    0.87914    1.000
    N1912    N        0.28915    0.36171    0.95495    1.000
    Si1913   Si       0.33822    0.42513    0.99016    1.000
    N1914    N        0.32077    0.40113    0.90637    1.000
    N1915    N        0.29748    0.43454    0.97457    1.000
    Si1916   Si       0.30701    0.43062    0.87927    1.000
    Si1917   Si       0.28624    0.39383    0.98278    1.000
    N1918    N        0.33902    0.45935    0.87953    1.000
    N1919    N        0.31641    0.53301    0.05924    1.000
    N1920    N        0.30901    0.58993    0.08591    1.000
    Si1921   Si       0.30880    0.54968    0.09839    1.000
    N1922    N        0.32010    0.58894    0.00691    1.000
    Si1923   Si       0.33842    0.55928    0.03223    1.000
    Si1924   Si       0.32353    0.63043    0.02250    1.000
    N1925    N        0.30420    0.69441    0.05184    1.000
    Si1926   Si       0.28642    0.71798    0.01969    1.000
    N1927    N        0.31069    0.65128    0.22607    1.000
    N1928    N        0.31439    0.74001    0.99500    1.000
    N1929    N        0.31170    0.60852    0.16639    1.000
    N1930    N        0.30631    0.56099    0.21580    1.000
    N1931    N        0.33545    0.54677    0.13187    1.000
    Si1932   Si       0.30204    0.64760    0.18224    1.000
    Si1933   Si       0.31847    0.70114    0.13196    1.000
    N1934    N        0.33214    0.67488    0.16412    1.000
    N1935    N        0.31115    0.74137    0.14787    1.000
    Si1936   Si       0.28374    0.57915    0.18397    1.000
    Si1937   Si       0.30116    0.57517    0.30017    1.000
    Si1938   Si       0.32513    0.62109    0.25639    1.000
    N1939    N        0.29043    0.53633    0.28437    1.000
    N1940    N        0.34069    0.58751    0.29951    1.000
    N1941    N        0.32417    0.53269    0.36604    1.000
    Si1942   Si       0.28905    0.61993    0.36705    1.000
    N1943    N        0.28683    0.60257    0.26661    1.000
    N1944    N        0.34291    0.70950    0.39875    1.000
    N1945    N        0.31745    0.75068    0.45440    1.000
    N1946    N        0.28634    0.69843    0.26365    1.000
    Si1947   Si       0.32914    0.68665    0.36092    1.000
    N1948    N        0.32406    0.64323    0.35459    1.000
    Si1949   Si       0.32862    0.68129    0.25224    1.000
    Si1950   Si       0.29427    0.73990    0.27473    1.000
    N1951    N        0.33805    0.65071    0.28369    1.000
    N1952    N        0.28954    0.70419    0.35203    1.000
    N1953    N        0.30726    0.75386    0.31398    1.000
    Si1954   Si       0.29545    0.61009    0.44109    1.000
    Si1955   Si       0.32438    0.56062    0.39833    1.000
    N1956    N        0.29727    0.59377    0.40118    1.000
    Si1957   Si       0.29593    0.54028    0.46825    1.000
    N1958    N        0.32086    0.53500    0.43335    1.000
    N1959    N        0.28581    0.58230    0.47260    1.000
    Si1960   Si       0.32306    0.74668    0.41159    1.000
    N1961    N        0.28516    0.75819    0.39227    1.000
    N1962    N        0.32832    0.63433    0.44528    1.000
    Si1963   Si       0.29121    0.50491    0.36450    1.000
    N1964    N        0.31993    0.61439    0.52655    1.000
    N1965    N        0.31090    0.53741    0.50907    1.000
    Si1966   Si       0.29211    0.58161    0.51852    1.000
    Si1967   Si       0.29027    0.56931    0.60218    1.000
    Si1968   Si       0.33257    0.54592    0.55176    1.000
    N1969    N        0.29353    0.52841    0.61974    1.000
    N1970    N        0.29058    0.56744    0.55893    1.000
    N1971    N        0.34676    0.55536    0.59158    1.000
    Si1972   Si       0.32435    0.72546    0.53150    1.000
    Si1973   Si       0.31032    0.65550    0.53750    1.000
    N1974    N        0.30177    0.65878    0.58245    1.000
    N1975    N        0.31411    0.75481    0.56393    1.000
    N1976    N        0.33707    0.68606    0.52514    1.000
    N1977    N        0.28352    0.73187    0.51248    1.000
    N1978    N        0.31008    0.60256    0.62453    1.000
    Si1979   Si       0.33825    0.53097    0.62383    1.000
    Si1980   Si       0.32662    0.55307    0.69579    1.000
    Si1981   Si       0.30160    0.61977    0.71923    1.000
    N1982    N        0.32411    0.59862    0.68947    1.000
    N1983    N        0.28859    0.53736    0.70595    1.000
    N1984    N        0.29242    0.70459    0.71834    1.000
    N1985    N        0.32806    0.64727    0.74022    1.000
    N1986    N        0.29791    0.75307    0.62890    1.000
    N1987    N        0.33603    0.74573    0.68557    1.000
    Si1988   Si       0.33772    0.74497    0.64337    1.000
    N1989    N        0.30876    0.66864    0.65416    1.000
    Si1990   Si       0.29594    0.64328    0.62267    1.000
    Si1991   Si       0.32889    0.56902    0.76227    1.000
    N1992    N        0.32837    0.54405    0.79646    1.000
    Si1993   Si       0.33050    0.60643    0.86744    1.000
    N1994    N        0.28987    0.59096    0.86283    1.000
    N1995    N        0.29156    0.58701    0.74629    1.000
    N1996    N        0.31863    0.64382    0.85042    1.000
    N1997    N        0.31646    0.74394    0.81024    1.000
    Si1998   Si       0.31564    0.75100    0.85467    1.000
    Si1999   Si       0.31152    0.68446    0.75181    1.000
    Si2000   Si       0.33955    0.68151    0.85855    1.000
    N2001    N        0.30752    0.70979    0.86910    1.000
    N2002    N        0.29880    0.52021    0.89152    1.000
    N2003    N        0.31322    0.56438    0.94565    1.000
    Si2004   Si       0.30719    0.52194    0.93647    1.000
    Si2005   Si       0.29140    0.59135    0.97322    1.000
    N2006    N        0.30314    0.69836    0.93521    1.000
    Si2007   Si       0.30578    0.74098    0.95302    1.000
    Si2008   Si       0.29850    0.66756    0.96824    1.000
    N2009    N        0.33534    0.65774    0.99107    1.000
    N2010    N        0.33695    0.75044    0.92368    1.000
    N2011    N        0.28131    0.68703    0.78377    1.000
    N2012    N        0.31428    0.79142    0.04167    1.000
    Si2013   Si       0.33615    0.77694    0.00667    1.000
    N2014    N        0.28924    0.99152    0.14104    1.000
    N2015    N        0.33961    0.86092    0.07065    1.000
    N2016    N        0.30885    0.95632    0.08217    1.000
    N2017    N        0.32749    0.92394    0.02243    1.000
    Si2018   Si       0.28579    0.92515    0.00888    1.000
    N2019    N        0.30317    0.84627    0.13405    1.000
    N2020    N        0.32052    0.83254    0.22384    1.000
    Si2021   Si       0.31575    0.87370    0.21485    1.000
    N2022    N        0.33402    0.89991    0.18122    1.000
    N2023    N        0.28718    0.96106    0.20125    1.000
    Si2024   Si       0.30162    0.97227    0.24237    1.000
    Si2025   Si       0.29949    0.88436    0.15493    1.000
    N2026    N        0.28672    0.92228    0.13672    1.000
    Si2027   Si       0.31035    0.95732    0.12318    1.000
    Si2028   Si       0.32649    0.94221    0.19033    1.000
    N2029    N        0.31382    0.76794    0.24811    1.000
    Si2030   Si       0.30910    0.81057    0.25880    1.000
    N2031    N        0.31363    0.81205    0.34514    1.000
    Si2032   Si       0.32083    0.85816    0.34452    1.000
    Si2033   Si       0.33726    0.78563    0.31771    1.000
    N2034    N        0.28429    0.93558    0.46725    1.000
    N2035    N        0.34426    0.81377    0.28449    1.000
    N2036    N        0.29115    0.94835    0.27687    1.000
    Si2037   Si       0.29689    0.90534    0.28063    1.000
    N2038    N        0.31965    0.89593    0.31582    1.000
    N2039    N        0.32062    0.96394    0.33709    1.000
    N2040    N        0.32461    0.89803    0.24961    1.000
    Si2041   Si       0.33614    0.00849    0.48562    1.000
    N2042    N        0.32802    0.85399    0.39005    1.000
    N2043    N        0.32177    0.84960    0.46157    1.000
    Si2044   Si       0.33672    0.77391    0.48471    1.000
    Si2045   Si       0.30974    0.81186    0.38813    1.000
    Si2046   Si       0.32239    0.87447    0.42690    1.000
    Si2047   Si       0.32163    0.98487    0.37232    1.000
    N2048    N        0.29686    0.96414    0.40366    1.000
    Si2049   Si       0.31597    0.94845    0.44096    1.000
    N2050    N        0.34186    0.78725    0.40509    1.000
    N2051    N        0.28321    0.88845    0.41995    1.000
    N2052    N        0.31154    0.82027    0.57300    1.000
    Si2053   Si       0.31520    0.78234    0.59628    1.000
    N2054    N        0.30039    0.79574    0.50307    1.000
    Si2055   Si       0.30223    0.83997    0.50188    1.000
    Si2056   Si       0.33181    0.88126    0.61903    1.000
    N2057    N        0.29301    0.88286    0.59887    1.000
    Si2058   Si       0.30571    0.93717    0.66853    1.000
    N2059    N        0.32826    0.98308    0.51937    1.000
    Si2060   Si       0.29688    0.98825    0.54870    1.000
    N2061    N        0.31840    0.99859    0.58687    1.000
    N2062    N        0.33328    0.91677    0.50775    1.000
    Si2063   Si       0.28833    0.91952    0.51074    1.000
    Si2064   Si       0.32217    0.78320    0.70442    1.000
    N2065    N        0.32464    0.84726    0.64497    1.000
    Si2066   Si       0.30049    0.87366    0.72490    1.000
    N2067    N        0.31165    0.91998    0.70991    1.000
    N2068    N        0.33570    0.91611    0.64647    1.000
    N2069    N        0.34160    0.98077    0.74614    1.000
    N2070    N        0.31382    0.97891    0.67783    1.000
    Si2071   Si       0.30996    0.78269    0.78555    1.000
    N2072    N        0.30505    0.83516    0.86115    1.000
    N2073    N        0.32844    0.86077    0.75467    1.000
    N2074    N        0.32711    0.78852    0.74690    1.000
    N2075    N        0.29796    0.93861    0.77923    1.000
    Si2076   Si       0.32017    0.97518    0.78438    1.000
    Si2077   Si       0.29274    0.91475    0.81712    1.000
    N2078    N        0.33329    0.90053    0.81745    1.000
    Si2079   Si       0.32490    0.96177    0.85759    1.000
    N2080    N        0.32018    0.00608    0.86638    1.000
    N2081    N        0.28682    0.00350    0.79795    1.000
    N2082    N        0.28697    0.93881    0.85236    1.000
    Si2083   Si       0.32779    0.83329    0.94815    1.000
    N2084    N        0.31734    0.80035    0.97496    1.000
    N2085    N        0.32441    0.87564    0.91176    1.000
    Si2086   Si       0.29413    0.88784    0.94131    1.000
    Si2087   Si       0.30511    0.96068    0.94743    1.000
    N2088    N        0.34027    0.99023    0.94441    1.000
    N2089    N        0.32602    0.92215    0.95360    1.000
    N2090    N        0.28328    0.84293    0.94952    1.000
    N2091    N        0.28055    0.96919    0.91228    1.000
    N2092    N        0.37175    0.02292    0.07499    1.000
    N2093    N        0.38177    0.12214    0.05308    1.000
    Si2094   Si       0.34482    0.10752    0.03404    1.000
    Si2095   Si       0.38757    0.13792    0.09332    1.000
    N2096    N        0.34869    0.15259    0.10551    1.000
    N2097    N        0.36198    0.19072    0.00140    1.000
    N2098    N        0.36723    0.21902    0.11879    1.000
    N2099    N        0.34908    0.25685    0.00406    1.000
    Si2100   Si       0.34145    0.18608    0.13364    1.000
    N2101    N        0.39304    0.10941    0.12524    1.000
    N2102    N        0.37220    0.10708    0.22933    1.000
    Si2103   Si       0.36327    0.07485    0.13390    1.000
    N2104    N        0.34995    0.09871    0.16905    1.000
    Si2105   Si       0.37801    0.13201    0.16251    1.000
    N2106    N        0.35344    0.16735    0.17097    1.000
    N2107    N        0.34048    0.03394    0.13281    1.000
    Si2108   Si       0.36937    0.04804    0.28725    1.000
    Si2109   Si       0.38665    0.12130    0.29490    1.000
    N2110    N        0.38693    0.01815    0.31628    1.000
    Si2111   Si       0.38915    0.01629    0.35908    1.000
    N2112    N        0.35701    0.03151    0.24995    1.000
    N2113    N        0.34565    0.13315    0.29495    1.000
    N2114    N        0.37335    0.05539    0.37198    1.000
    N2115    N        0.39599    0.11989    0.33783    1.000
    N2116    N        0.37612    0.19439    0.30954    1.000
    Si2117   Si       0.34200    0.17422    0.28845    1.000
    N2118    N        0.34413    0.18650    0.24865    1.000
    Si2119   Si       0.37168    0.16433    0.47346    1.000
    N2120    N        0.39647    0.08457    0.46589    1.000
    Si2121   Si       0.38344    0.06250    0.42079    1.000
    N2122    N        0.39417    0.20454    0.39376    1.000
    N2123    N        0.38301    0.20545    0.46469    1.000
    N2124    N        0.39948    0.14963    0.44189    1.000
    Si2125   Si       0.35866    0.22767    0.39612    1.000
    N2126    N        0.39960    0.08035    0.28387    1.000
    Si2127   Si       0.36629    0.04817    0.54402    1.000
    N2128    N        0.38232    0.12168    0.59529    1.000
    N2129    N        0.38444    0.02254    0.57536    1.000
    N2130    N        0.36753    0.03160    0.50332    1.000
    N2131    N        0.39108    0.08425    0.53722    1.000
    Si2132   Si       0.37674    0.10411    0.50214    1.000
    N2133    N        0.39536    0.20221    0.65096    1.000
    Si2134   Si       0.36169    0.20050    0.58558    1.000
    N2135    N        0.36196    0.23952    0.60512    1.000
    N2136    N        0.38789    0.14701    0.50923    1.000
    Si2137   Si       0.34964    0.08164    0.74167    1.000
    N2138    N        0.36828    0.02379    0.68873    1.000
    Si2139   Si       0.35997    0.06148    0.66800    1.000
    N2140    N        0.36574    0.12282    0.73993    1.000
    Si2141   Si       0.39321    0.11914    0.63864    1.000
    N2142    N        0.39850    0.07845    0.65453    1.000
    Si2143   Si       0.39388    0.15568    0.74442    1.000
    Si2144   Si       0.35750    0.18222    0.65564    1.000
    N2145    N        0.36462    0.13921    0.66734    1.000
    Si2146   Si       0.39016    0.24544    0.64012    1.000
    N2147    N        0.36781    0.25054    0.72692    1.000
    N2148    N        0.40200    0.19052    0.57466    1.000
    Si2149   Si       0.37006    0.01063    0.72974    1.000
    N2150    N        0.35753    0.04500    0.82172    1.000
    Si2151   Si       0.36016    0.02515    0.86187    1.000
    N2152    N        0.35575    0.11183    0.81515    1.000
    Si2153   Si       0.38854    0.04131    0.79381    1.000
    N2154    N        0.37062    0.04561    0.75425    1.000
    Si2155   Si       0.39606    0.10141    0.82673    1.000
    N2156    N        0.39657    0.09060    0.86934    1.000
    Si2157   Si       0.35875    0.22142    0.84161    1.000
    N2158    N        0.37115    0.17898    0.83799    1.000
    N2159    N        0.37599    0.19355    0.75810    1.000
    N2160    N        0.39713    0.23777    0.85023    1.000
    Si2161   Si       0.39693    0.22936    0.74934    1.000
    N2162    N        0.36201    0.04385    0.90210    1.000
    Si2163   Si       0.36771    0.08808    0.90179    1.000
    N2164    N        0.34957    0.11934    0.99036    1.000
    N2165    N        0.39647    0.08638    0.93550    1.000
    Si2166   Si       0.37595    0.15465    0.98508    1.000
    N2167    N        0.38091    0.16340    0.94413    1.000
    N2168    N        0.39611    0.23175    0.91691    1.000
    N2169    N        0.37502    0.36606    0.04730    1.000
    N2170    N        0.36359    0.29403    0.11596    1.000
    N2171    N        0.34630    0.32559    0.99706    1.000
    Si2172   Si       0.34493    0.25655    0.11649    1.000
    Si2173   Si       0.38923    0.27014    0.99789    1.000
    N2174    N        0.38277    0.39243    0.11620    1.000
    Si2175   Si       0.36759    0.39676    0.07722    1.000
    N2176    N        0.39013    0.43423    0.06931    1.000
    N2177    N        0.36364    0.45757    0.00543    1.000
    N2178    N        0.34388    0.32158    0.17961    1.000
    Si2179   Si       0.34228    0.27901    0.18473    1.000
    Si2180   Si       0.35525    0.33070    0.13614    1.000
    Si2181   Si       0.37384    0.35304    0.19129    1.000
    N2182    N        0.39471    0.34352    0.15411    1.000
    N2183    N        0.38212    0.26254    0.17847    1.000
    Si2184   Si       0.36567    0.49320    0.22579    1.000
    N2185    N        0.39115    0.44724    0.14592    1.000
    N2186    N        0.35695    0.39227    0.18406    1.000
    Si2187   Si       0.36124    0.41680    0.14774    1.000
    N2188    N        0.34129    0.50145    0.18942    1.000
    Si2189   Si       0.34162    0.49671    0.99611    1.000
    N2190    N        0.36826    0.31456    0.34743    1.000
    N2191    N        0.37400    0.30872    0.27077    1.000
    Si2192   Si       0.37414    0.27560    0.36111    1.000
    N2193    N        0.34987    0.38397    0.36123    1.000
    Si2194   Si       0.36980    0.42105    0.34917    1.000
    Si2195   Si       0.35734    0.42973    0.26729    1.000
    N2196    N        0.35699    0.46710    0.35474    1.000
    N2197    N        0.34917    0.42320    0.30906    1.000
    N2198    N        0.34523    0.46805    0.25192    1.000
    N2199    N        0.34916    0.41625    0.48792    1.000
    Si2200   Si       0.34586    0.50616    0.33724    1.000
    Si2201   Si       0.36688    0.34630    0.37458    1.000
    N2202    N        0.37020    0.26937    0.40514    1.000
    Si2203   Si       0.37471    0.30600    0.42734    1.000
    N2204    N        0.35747    0.30811    0.46670    1.000
    Si2205   Si       0.35534    0.34246    0.49518    1.000
    N2206    N        0.37681    0.49518    0.42115    1.000
    Si2207   Si       0.39271    0.40626    0.48819    1.000
    Si2208   Si       0.36133    0.46188    0.39841    1.000
    N2209    N        0.38928    0.42937    0.39205    1.000
    Si2210   Si       0.36304    0.32447    0.56629    1.000
    N2211    N        0.35729    0.30413    0.60362    1.000
    N2212    N        0.38884    0.36595    0.50699    1.000
    N2213    N        0.38921    0.26589    0.51702    1.000
    N2214    N        0.34421    0.36443    0.57462    1.000
    Si2215   Si       0.37212    0.48399    0.66469    1.000
    Si2216   Si       0.37073    0.39627    0.59229    1.000
    Si2217   Si       0.36143    0.47313    0.58400    1.000
    N2218    N        0.34572    0.43171    0.59316    1.000
    Si2219   Si       0.37686    0.29169    0.71016    1.000
    N2220    N        0.37047    0.27486    0.66892    1.000
    Si2221   Si       0.36813    0.31498    0.64412    1.000
    N2222    N        0.34498    0.31680    0.72101    1.000
    Si2223   Si       0.35782    0.50105    0.72910    1.000
    N2224    N        0.39800    0.48553    0.73988    1.000
    N2225    N        0.38012    0.38563    0.63283    1.000
    N2226    N        0.35670    0.49239    0.62411    1.000
    Si2227   Si       0.36153    0.40807    0.66701    1.000
    N2228    N        0.35302    0.38516    0.70464    1.000
    N2229    N        0.38708    0.44486    0.66925    1.000
    Si2230   Si       0.35357    0.28108    0.49912    1.000
    N2231    N        0.36140    0.30477    0.80004    1.000
    N2232    N        0.38518    0.36120    0.77823    1.000
    Si2233   Si       0.36166    0.34448    0.81290    1.000
    N2234    N        0.37000    0.34303    0.85544    1.000
    Si2235   Si       0.39916    0.29491    0.78002    1.000
    Si2236   Si       0.36867    0.39199    0.74951    1.000
    N2237    N        0.36578    0.34795    0.92594    1.000
    Si2238   Si       0.37672    0.33335    0.96558    1.000
    N2239    N        0.38511    0.29046    0.95965    1.000
    Si2240   Si       0.38099    0.27432    0.92197    1.000
    Si2241   Si       0.34831    0.32859    0.89160    1.000
    N2242    N        0.34694    0.28385    0.89874    1.000
    N2243    N        0.34293    0.49850    0.95146    1.000
    Si2244   Si       0.39939    0.37688    0.86767    1.000
    Si2245   Si       0.38099    0.44968    0.87911    1.000
    N2246    N        0.37076    0.40645    0.96461    1.000
    N2247    N        0.38565    0.40906    0.89406    1.000
    Si2248   Si       0.35825    0.39440    0.92379    1.000
    N2249    N        0.36870    0.57985    0.05706    1.000
    N2250    N        0.35931    0.53314    0.00733    1.000
    Si2251   Si       0.34984    0.60821    0.08419    1.000
    N2252    N        0.37176    0.60746    0.12206    1.000
    N2253    N        0.37179    0.70068    0.03483    1.000
    N2254    N        0.35344    0.69761    0.10241    1.000
    N2255    N        0.34447    0.64098    0.05823    1.000
    N2256    N        0.34986    0.73458    0.20094    1.000
    Si2257   Si       0.34418    0.58561    0.14877    1.000
    Si2258   Si       0.34966    0.56640    0.22046    1.000
    N2259    N        0.36712    0.56705    0.18090    1.000
    Si2260   Si       0.36060    0.52690    0.16168    1.000
    N2261    N        0.36046    0.60450    0.23647    1.000
    N2262    N        0.36986    0.53440    0.23949    1.000
    Si2263   Si       0.34285    0.68461    0.06259    1.000
    Si2264   Si       0.38895    0.70793    0.12571    1.000
    N2265    N        0.37712    0.75161    0.13475    1.000
    N2266    N        0.37055    0.67563    0.22598    1.000
    Si2267   Si       0.39047    0.63815    0.23523    1.000
    Si2268   Si       0.35241    0.75326    0.24014    1.000
    Si2269   Si       0.36082    0.69448    0.18939    1.000
    N2270    N        0.39851    0.69433    0.16627    1.000
    Si2271   Si       0.37961    0.57212    0.31149    1.000
    N2272    N        0.38112    0.52952    0.32910    1.000
    N2273    N        0.38404    0.60786    0.33828    1.000
    Si2274   Si       0.37272    0.72078    0.30315    1.000
    N2275    N        0.36640    0.69267    0.33860    1.000
    Si2276   Si       0.39811    0.67497    0.36444    1.000
    N2277    N        0.34466    0.72104    0.26931    1.000
    Si2278   Si       0.38921    0.61108    0.37903    1.000
    Si2279   Si       0.38672    0.57087    0.43611    1.000
    N2280    N        0.37613    0.54536    0.46934    1.000
    N2281    N        0.36492    0.57843    0.39829    1.000
    Si2282   Si       0.35320    0.51232    0.45235    1.000
    N2283    N        0.39297    0.61149    0.44653    1.000
    N2284    N        0.37585    0.68321    0.45690    1.000
    N2285    N        0.39062    0.74977    0.42939    1.000
    N2286    N        0.37795    0.65023    0.39277    1.000
    Si2287   Si       0.38005    0.70838    0.42008    1.000
    Si2288   Si       0.36768    0.64418    0.43474    1.000
    Si2289   Si       0.34813    0.62911    0.32032    1.000
    N2290    N        0.36992    0.56695    0.53533    1.000
    Si2291   Si       0.36157    0.60967    0.53444    1.000
    Si2292   Si       0.38468    0.57175    0.58092    1.000
    N2293    N        0.37727    0.61474    0.57385    1.000
    Si2294   Si       0.39753    0.62858    0.61000    1.000
    Si2295   Si       0.39696    0.55041    0.50504    1.000
    N2296    N        0.38095    0.63372    0.50581    1.000
    N2297    N        0.35697    0.74911    0.51442    1.000
    Si2298   Si       0.39671    0.74174    0.53252    1.000
    N2299    N        0.39735    0.74086    0.57608    1.000
    Si2300   Si       0.37472    0.67768    0.50014    1.000
    Si2301   Si       0.39928    0.71169    0.60954    1.000
    N2302    N        0.39640    0.58409    0.62781    1.000
    Si2303   Si       0.38636    0.57681    0.73182    1.000
    N2304    N        0.35307    0.54512    0.72978    1.000
    N2305    N        0.35070    0.55285    0.65825    1.000
    Si2306   Si       0.39815    0.55465    0.66178    1.000
    Si2307   Si       0.34651    0.59741    0.65036    1.000
    N2308    N        0.40005    0.51313    0.68041    1.000
    N2309    N        0.39991    0.58520    0.69294    1.000
    N2310    N        0.36553    0.63775    0.63826    1.000
    Si2311   Si       0.35173    0.67475    0.65421    1.000
    N2312    N        0.39740    0.74737    0.71706    1.000
    Si2313   Si       0.36133    0.72168    0.71349    1.000
    N2314    N        0.37461    0.68854    0.69062    1.000
    N2315    N        0.35952    0.70955    0.62814    1.000
    Si2316   Si       0.36224    0.54681    0.82072    1.000
    N2317    N        0.35948    0.57944    0.84841    1.000
    N2318    N        0.36158    0.59604    0.76446    1.000
    N2319    N        0.36817    0.51817    0.85420    1.000
    N2320    N        0.39580    0.63911    0.85587    1.000
    Si2321   Si       0.36888    0.63922    0.75455    1.000
    N2322    N        0.36081    0.69051    0.82270    1.000
    Si2323   Si       0.35489    0.72358    0.79597    1.000
    N2324    N        0.38759    0.74967    0.80442    1.000
    N2325    N        0.34718    0.71118    0.75543    1.000
    Si2326   Si       0.39731    0.66914    0.82561    1.000
    Si2327   Si       0.34503    0.70798    0.92385    1.000
    Si2328   Si       0.38380    0.55403    0.87559    1.000
    N2329    N        0.35170    0.61314    0.90531    1.000
    N2330    N        0.37432    0.54444    0.91522    1.000
    N2331    N        0.38199    0.58722    0.96648    1.000
    Si2332   Si       0.35327    0.57974    0.93438    1.000
    Si2333   Si       0.39312    0.55264    0.99095    1.000
    Si2334   Si       0.38245    0.50718    0.93401    1.000
    N2335    N        0.36804    0.70935    0.96091    1.000
    Si2336   Si       0.39711    0.74268    0.96190    1.000
    Si2337   Si       0.38276    0.64056    0.89864    1.000
    N2338    N        0.36215    0.68021    0.89470    1.000
    Si2339   Si       0.37113    0.68275    0.99397    1.000
    Si2340   Si       0.38664    0.78063    0.10263    1.000
    N2341    N        0.37478    0.81990    0.03030    1.000
    N2342    N        0.35097    0.80381    0.09933    1.000
    Si2343   Si       0.36819    0.87994    0.09696    1.000
    Si2344   Si       0.37933    0.84989    0.99995    1.000
    N2345    N        0.39128    0.75948    0.06457    1.000
    Si2346   Si       0.39714    0.78229    0.02828    1.000
    N2347    N        0.37765    0.76769    0.99413    1.000
    N2348    N        0.35543    0.00192    0.00974    1.000
    N2349    N        0.35948    0.92246    0.09893    1.000
    Si2350   Si       0.38504    0.99893    0.04132    1.000
    N2351    N        0.38236    0.95500    0.04598    1.000
    N2352    N        0.38642    0.89056    0.00987    1.000
    Si2353   Si       0.34314    0.93812    0.06127    1.000
    Si2354   Si       0.35944    0.81918    0.20972    1.000
    N2355    N        0.37135    0.85862    0.13648    1.000
    N2356    N        0.38049    0.78639    0.23138    1.000
    N2357    N        0.38000    0.85724    0.20648    1.000
    N2358    N        0.34775    0.80226    0.17156    1.000
    N2359    N        0.39826    0.91790    0.15914    1.000
    N2360    N        0.37866    0.00564    0.19032    1.000
    Si2361   Si       0.35804    0.00191    0.15411    1.000
    Si2362   Si       0.37402    0.88479    0.17263    1.000
    Si2363   Si       0.36999    0.99537    0.23186    1.000
    N2364    N        0.34204    0.96112    0.22981    1.000
    N2365    N        0.34288    0.96020    0.15383    1.000
    N2366    N        0.39567    0.98607    0.12928    1.000
    N2367    N        0.39409    0.91817    0.23282    1.000
    Si2368   Si       0.38002    0.94358    0.12945    1.000
    Si2369   Si       0.34120    0.81966    0.06015    1.000
    Si2370   Si       0.34119    0.82669    0.13654    1.000
    Si2371   Si       0.34620    0.75905    0.16442    1.000
    N2372    N        0.36672    0.85359    0.33462    1.000
    Si2373   Si       0.37820    0.83642    0.29719    1.000
    N2374    N        0.37500    0.76444    0.31424    1.000
    N2375    N        0.39072    0.87124    0.27559    1.000
    Si2376   Si       0.39183    0.87935    0.35949    1.000
    N2377    N        0.37121    0.93102    0.29816    1.000
    Si2378   Si       0.35799    0.92748    0.25620    1.000
    N2379    N        0.36513    0.91488    0.36577    1.000
    Si2380   Si       0.34315    0.92868    0.33114    1.000
    N2381    N        0.38743    0.87171    0.47475    1.000
    Si2382   Si       0.35994    0.83991    0.47948    1.000
    Si2383   Si       0.37524    0.79050    0.42841    1.000
    N2384    N        0.36769    0.79953    0.46855    1.000
    N2385    N        0.38927    0.93915    0.49567    1.000
    N2386    N        0.34507    0.91395    0.43621    1.000
    Si2387   Si       0.37705    0.98299    0.42475    1.000
    N2388    N        0.34375    0.97972    0.45328    1.000
    N2389    N        0.36189    0.99047    0.38408    1.000
    Si2390   Si       0.36289    0.91051    0.47709    1.000
    Si2391   Si       0.37804    0.91401    0.40673    1.000
    N2392    N        0.36173    0.86514    0.59132    1.000
    N2393    N        0.38738    0.80856    0.56386    1.000
    Si2394   Si       0.38874    0.77836    0.59745    1.000
    Si2395   Si       0.35176    0.83479    0.56205    1.000
    Si2396   Si       0.39866    0.87265    0.61470    1.000
    N2397    N        0.34288    0.84351    0.51959    1.000
    N2398    N        0.37284    0.95533    0.56405    1.000
    Si2399   Si       0.36064    0.98893    0.58855    1.000
    Si2400   Si       0.35628    0.95030    0.52449    1.000
    N2401    N        0.39654    0.91589    0.61798    1.000
    N2402    N        0.35270    0.78669    0.62136    1.000
    N2403    N        0.35878    0.80696    0.69145    1.000
    Si2404   Si       0.35872    0.82089    0.64866    1.000
    N2405    N        0.39230    0.84991    0.65105    1.000
    Si2406   Si       0.39617    0.79230    0.71147    1.000
    N2407    N        0.36941    0.97742    0.62906    1.000
    Si2408   Si       0.34758    0.94232    0.72160    1.000
    Si2409   Si       0.34620    0.99937    0.65833    1.000
    Si2410   Si       0.37606    0.93997    0.64729    1.000
    N2411    N        0.37552    0.94779    0.68962    1.000
    Si2412   Si       0.37486    0.78512    0.82860    1.000
    N2413    N        0.38548    0.86269    0.78282    1.000
    Si2414   Si       0.35323    0.82275    0.76387    1.000
    N2415    N        0.35285    0.77110    0.86376    1.000
    N2416    N        0.37340    0.86749    0.86394    1.000
    N2417    N        0.34559    0.80468    0.80411    1.000
    N2418    N        0.39228    0.80874    0.75127    1.000
    Si2419   Si       0.35053    0.88933    0.77996    1.000
    Si2420   Si       0.36581    0.90638    0.84792    1.000
    Si2421   Si       0.38900    0.97135    0.82614    1.000
    N2422    N        0.34558    0.96891    0.81805    1.000
    N2423    N        0.39470    0.99801    0.86094    1.000
    N2424    N        0.36912    0.91810    0.75295    1.000
    N2425    N        0.39807    0.92875    0.82881    1.000
    Si2426   Si       0.36246    0.77905    0.90629    1.000
    N2427    N        0.34975    0.81899    0.91326    1.000
    N2428    N        0.34314    0.86042    0.97792    1.000
    N2429    N        0.34853    0.93153    0.87822    1.000
    Si2430   Si       0.37339    0.98376    0.97199    1.000
    Si2431   Si       0.34944    0.90408    0.98921    1.000
    Si2432   Si       0.34858    0.91188    0.91667    1.000
    N2433    N        0.38748    0.89753    0.92945    1.000
    Si2434   Si       0.33874    0.84837    0.88269    1.000
    N2435    N        0.43441    0.06458    0.08696    1.000
    Si2436   Si       0.44782    0.03235    0.06002    1.000
    Si2437   Si       0.41919    0.11413    0.02779    1.000
    N2438    N        0.42348    0.01644    0.02780    1.000
    N2439    N        0.41604    0.07861    0.00190    1.000
    Si2440   Si       0.40252    0.02320    0.10562    1.000
    N2441    N        0.45922    0.12011    0.04463    1.000
    Si2442   Si       0.45291    0.22197    0.23588    1.000
    N2443    N        0.43386    0.23245    0.08767    1.000
    N2444    N        0.41768    0.16692    0.10501    1.000
    Si2445   Si       0.41038    0.20815    0.11283    1.000
    N2446    N        0.42402    0.24534    0.99647    1.000
    Si2447   Si       0.45769    0.07459    0.20542    1.000
    Si2448   Si       0.43009    0.08516    0.12840    1.000
    Si2449   Si       0.41492    0.02651    0.17565    1.000
    N2450    N        0.41993    0.05435    0.20967    1.000
    N2451    N        0.44429    0.10705    0.23007    1.000
    Si2452   Si       0.40781    0.08535    0.23892    1.000
    N2453    N        0.41753    0.14179    0.17477    1.000
    N2454    N        0.44348    0.18475    0.21713    1.000
    Si2455   Si       0.42219    0.24957    0.17082    1.000
    N2456    N        0.44514    0.25361    0.20805    1.000
    Si2457   Si       0.44154    0.17611    0.17469    1.000
    N2458    N        0.42604    0.20965    0.15430    1.000
    Si2459   Si       0.44559    0.14906    0.24336    1.000
    N2460    N        0.40206    0.05007    0.14053    1.000
    N2461    N        0.43932    0.06914    0.34278    1.000
    Si2462   Si       0.44138    0.07161    0.29858    1.000
    N2463    N        0.44502    0.03178    0.27966    1.000
    Si2464   Si       0.40353    0.08647    0.36244    1.000
    Si2465   Si       0.40360    0.23140    0.49479    1.000
    N2466    N        0.43987    0.18790    0.33743    1.000
    N2467    N        0.43691    0.21714    0.27714    1.000
    N2468    N        0.41455    0.15027    0.27669    1.000
    Si2469   Si       0.41695    0.18592    0.30028    1.000
    Si2470   Si       0.42218    0.21659    0.36533    1.000
    N2471    N        0.40885    0.25478    0.34875    1.000
    Si2472   Si       0.40341    0.04275    0.47893    1.000
    N2473    N        0.40815    0.09414    0.40432    1.000
    Si2474   Si       0.42058    0.11247    0.44088    1.000
    Si2475   Si       0.43769    0.01646    0.42042    1.000
    N2476    N        0.44171    0.02949    0.49018    1.000
    N2477    N        0.42729    0.00871    0.37902    1.000
    N2478    N        0.39668    0.02377    0.43704    1.000
    N2479    N        0.45323    0.18647    0.42840    1.000
    Si2480   Si       0.40942    0.18972    0.43165    1.000
    N2481    N        0.43909    0.24574    0.47447    1.000
    N2482    N        0.46075    0.11715    0.44915    1.000
    N2483    N        0.45725    0.23902    0.38357    1.000
    Si2484   Si       0.41440    0.10910    0.56526    1.000
    N2485    N        0.43791    0.07630    0.58609    1.000
    Si2486   Si       0.42430    0.03463    0.58787    1.000
    N2487    N        0.44286    0.13856    0.54697    1.000
    N2488    N        0.42818    0.20791    0.52245    1.000
    Si2489   Si       0.41271    0.16785    0.53818    1.000
    Si2490   Si       0.43495    0.22107    0.56700    1.000
    Si2491   Si       0.42626    0.17726    0.66816    1.000
    N2492    N        0.43254    0.02228    0.62842    1.000
    Si2493   Si       0.43582    0.05725    0.65457    1.000
    N2494    N        0.45021    0.03859    0.69071    1.000
    N2495    N        0.43169    0.14214    0.64266    1.000
    N2496    N        0.41822    0.16691    0.70879    1.000
    N2497    N        0.43958    0.21993    0.74158    1.000
    Si2498   Si       0.44928    0.17893    0.73585    1.000
    N2499    N        0.41252    0.07820    0.79251    1.000
    Si2500   Si       0.44989    0.07842    0.77138    1.000
    N2501    N        0.45125    0.05122    0.84527    1.000
    N2502    N        0.45869    0.03518    0.76058    1.000
    Si2503   Si       0.43450    0.01651    0.86803    1.000
    N2504    N        0.42207    0.13518    0.82770    1.000
    N2505    N        0.43110    0.15369    0.76497    1.000
    N2506    N        0.43980    0.19406    0.82383    1.000
    Si2507   Si       0.42980    0.23375    0.81873    1.000
    Si2508   Si       0.41219    0.17300    0.85104    1.000
    Si2509   Si       0.45011    0.15647    0.80445    1.000
    N2510    N        0.40690    0.25320    0.78565    1.000
    Si2511   Si       0.43700    0.07844    0.87817    1.000
    N2512    N        0.43827    0.04191    0.90563    1.000
    Si2513   Si       0.42041    0.10552    0.96434    1.000
    Si2514   Si       0.42566    0.03690    0.99051    1.000
    N2515    N        0.45252    0.12737    0.94698    1.000
    N2516    N        0.40111    0.01704    0.96154    1.000
    N2517    N        0.42277    0.16939    0.89102    1.000
    Si2518   Si       0.45222    0.15925    0.97526    1.000
    N2519    N        0.44494    0.19618    0.95200    1.000
    Si2520   Si       0.45969    0.22044    0.99311    1.000
    Si2521   Si       0.45691    0.14589    0.90419    1.000
    Si2522   Si       0.40922    0.19125    0.92680    1.000
    Si2523   Si       0.41967    0.24795    0.88459    1.000
    N2524    N        0.41504    0.14074    0.99422    1.000
    Si2525   Si       0.39814    0.04421    0.92869    1.000
    N2526    N        0.44120    0.35548    0.04593    1.000
    Si2527   Si       0.44219    0.27525    0.03267    1.000
    N2528    N        0.44389    0.34471    0.11616    1.000
    N2529    N        0.45470    0.29187    0.07291    1.000
    Si2530   Si       0.40463    0.34097    0.02957    1.000
    Si2531   Si       0.45713    0.26438    0.10568    1.000
    N2532    N        0.40297    0.29668    0.02880    1.000
    N2533    N        0.42292    0.41573    0.01108    1.000
    N2534    N        0.42686    0.48441    0.02936    1.000
    N2535    N        0.43388    0.47400    0.10063    1.000
    Si2536   Si       0.41135    0.43794    0.10726    1.000
    Si2537   Si       0.43871    0.50100    0.06787    1.000
    Si2538   Si       0.45836    0.39130    0.02902    1.000
    N2539    N        0.44696    0.41305    0.11885    1.000
    Si2540   Si       0.39923    0.44988    0.02890    1.000
    Si2541   Si       0.42135    0.37930    0.13521    1.000
    Si2542   Si       0.44101    0.35988    0.20862    1.000
    Si2543   Si       0.43363    0.31956    0.14972    1.000
    N2544    N        0.43887    0.27892    0.14054    1.000
    N2545    N        0.40200    0.35116    0.22428    1.000
    N2546    N        0.45349    0.32094    0.18781    1.000
    N2547    N        0.44078    0.38776    0.17439    1.000
    N2548    N        0.45580    0.46042    0.16724    1.000
    Si2549   Si       0.41330    0.47429    0.17071    1.000
    N2550    N        0.40339    0.47640    0.21282    1.000
    N2551    N        0.42334    0.36695    0.28451    1.000
    Si2552   Si       0.41000    0.33073    0.26137    1.000
    N2553    N        0.44695    0.30540    0.25614    1.000
    Si2554   Si       0.45060    0.27179    0.35309    1.000
    Si2555   Si       0.42358    0.40874    0.29639    1.000
    N2556    N        0.41162    0.41859    0.33540    1.000
    N2557    N        0.42087    0.50216    0.27332    1.000
    Si2558   Si       0.42492    0.46615    0.24908    1.000
    N2559    N        0.44952    0.31080    0.36914    1.000
    Si2560   Si       0.44977    0.28618    0.46446    1.000
    N2561    N        0.41933    0.30275    0.43867    1.000
    Si2562   Si       0.43603    0.32697    0.40751    1.000
    N2563    N        0.40180    0.35385    0.39920    1.000
    Si2564   Si       0.46061    0.39490    0.43967    1.000
    N2565    N        0.43372    0.49421    0.45843    1.000
    N2566    N        0.44942    0.40702    0.39882    1.000
    Si2567   Si       0.42987    0.43895    0.37154    1.000
    N2568    N        0.41891    0.39933    0.45463    1.000
    Si2569   Si       0.41927    0.50479    0.41922    1.000
    N2570    N        0.43128    0.48247    0.38440    1.000
    Si2571   Si       0.40701    0.39461    0.41300    1.000
    N2572    N        0.40286    0.43370    0.26724    1.000
    Si2573   Si       0.42141    0.28885    0.53231    1.000
    Si2574   Si       0.41692    0.36267    0.54092    1.000
    N2575    N        0.45047    0.30290    0.50494    1.000
    N2576    N        0.44838    0.26133    0.55775    1.000
    N2577    N        0.40485    0.32253    0.55380    1.000
    N2578    N        0.45986    0.36426    0.53464    1.000
    Si2579   Si       0.41989    0.43628    0.55518    1.000
    N2580    N        0.40746    0.44292    0.51251    1.000
    N2581    N        0.40456    0.47254    0.57479    1.000
    N2582    N        0.40509    0.39636    0.56638    1.000
    Si2583   Si       0.42285    0.48141    0.49978    1.000
    N2584    N        0.45532    0.38338    0.62146    1.000
    N2585    N        0.40945    0.32853    0.64499    1.000
    Si2586   Si       0.41948    0.37171    0.64265    1.000
    Si2587   Si       0.44720    0.30915    0.72618    1.000
    Si2588   Si       0.44257    0.29867    0.64533    1.000
    N2589    N        0.40668    0.30213    0.73729    1.000
    N2590    N        0.45200    0.35206    0.73176    1.000
    N2591    N        0.45711    0.29385    0.68541    1.000
    N2592    N        0.43031    0.26013    0.63390    1.000
    Si2593   Si       0.43726    0.39115    0.71932    1.000
    N2594    N        0.45542    0.45339    0.64097    1.000
    N2595    N        0.44554    0.45773    0.70902    1.000
    Si2596   Si       0.42945    0.49914    0.70973    1.000
    N2597    N        0.42879    0.39496    0.67903    1.000
    Si2598   Si       0.43026    0.44010    0.67206    1.000
    N2599    N        0.40678    0.41022    0.74190    1.000
    N2600    N        0.43018    0.31938    0.79992    1.000
    Si2601   Si       0.42442    0.36325    0.79803    1.000
    N2602    N        0.45920    0.26264    0.83080    1.000
    Si2603   Si       0.44330    0.50058    0.99368    1.000
    N2604    N        0.41165    0.39108    0.82889    1.000
    Si2605   Si       0.42904    0.42992    0.82398    1.000
    N2606    N        0.44093    0.45060    0.78622    1.000
    Si2607   Si       0.40369    0.50035    0.83383    1.000
    N2608    N        0.44417    0.50128    0.85373    1.000
    Si2609   Si       0.42119    0.44904    0.74742    1.000
    N2610    N        0.39736    0.45723    0.84021    1.000
    Si2611   Si       0.44640    0.31981    0.90126    1.000
    N2612    N        0.41056    0.35250    0.98725    1.000
    N2613    N        0.41471    0.28948    0.89801    1.000
    N2614    N        0.43486    0.35888    0.88797    1.000
    Si2615   Si       0.45717    0.33740    0.98091    1.000
    N2616    N        0.46148    0.33687    0.93984    1.000
    N2617    N        0.44069    0.40726    0.94350    1.000
    Si2618   Si       0.41105    0.39729    0.97310    1.000
    N2619    N        0.40047    0.48065    0.90528    1.000
    Si2620   Si       0.44187    0.49150    0.89543    1.000
    Si2621   Si       0.46192    0.37605    0.91723    1.000
    N2622    N        0.42228    0.55672    0.02145    1.000
    N2623    N        0.43217    0.59926    0.08085    1.000
    N2624    N        0.41712    0.53460    0.08701    1.000
    Si2625   Si       0.40908    0.56895    0.06161    1.000
    Si2626   Si       0.41626    0.60995    0.12098    1.000
    N2627    N        0.42875    0.73878    0.22353    1.000
    N2628    N        0.42062    0.70897    0.09721    1.000
    N2629    N        0.43670    0.71528    0.03374    1.000
    Si2630   Si       0.45767    0.72598    0.11249    1.000
    Si2631   Si       0.40147    0.71911    0.05891    1.000
    Si2632   Si       0.43953    0.69032    0.99750    1.000
    N2633    N        0.40846    0.62689    0.19656    1.000
    Si2634   Si       0.42882    0.53745    0.13013    1.000
    N2635    N        0.42863    0.56238    0.22043    1.000
    N2636    N        0.42468    0.57657    0.14871    1.000
    Si2637   Si       0.40747    0.58378    0.18932    1.000
    N2638    N        0.44240    0.64045    0.13551    1.000
    N2639    N        0.45437    0.68386    0.19167    1.000
    Si2640   Si       0.42427    0.65917    0.17101    1.000
    Si2641   Si       0.42834    0.72046    0.18402    1.000
    N2642    N        0.44482    0.74376    0.14959    1.000
    N2643    N        0.40061    0.51248    0.15234    1.000
    Si2644   Si       0.43886    0.59943    0.28020    1.000
    N2645    N        0.41516    0.56404    0.28792    1.000
    Si2646   Si       0.42211    0.52586    0.31227    1.000
    Si2647   Si       0.41081    0.53940    0.25243    1.000
    Si2648   Si       0.45249    0.63180    0.35139    1.000
    N2649    N        0.45901    0.52213    0.33377    1.000
    N2650    N        0.41067    0.63380    0.27245    1.000
    N2651    N        0.42964    0.66391    0.33666    1.000
    Si2652   Si       0.42511    0.66893    0.29407    1.000
    Si2653   Si       0.44582    0.72024    0.26151    1.000
    N2654    N        0.41086    0.70932    0.28775    1.000
    N2655    N        0.45548    0.75182    0.29638    1.000
    N2656    N        0.43180    0.61537    0.38623    1.000
    N2657    N        0.42396    0.55138    0.42055    1.000
    Si2658   Si       0.44988    0.58498    0.41043    1.000
    Si2659   Si       0.41293    0.62097    0.48238    1.000
    N2660    N        0.44327    0.65132    0.47808    1.000
    N2661    N        0.41653    0.70383    0.39254    1.000
    N2662    N        0.46071    0.72589    0.48075    1.000
    N2663    N        0.45983    0.60512    0.31740    1.000
    Si2664   Si       0.45938    0.70701    0.39449    1.000
    N2665    N        0.46071    0.74753    0.41260    1.000
    N2666    N        0.42112    0.54938    0.58347    1.000
    Si2667   Si       0.44190    0.57131    0.61580    1.000
    N2668    N        0.41310    0.51425    0.52374    1.000
    N2669    N        0.45015    0.61631    0.61575    1.000
    Si2670   Si       0.42760    0.50956    0.56526    1.000
    N2671    N        0.42653    0.58179    0.49224    1.000
    N2672    N        0.40776    0.70125    0.51747    1.000
    N2673    N        0.41586    0.66993    0.60343    1.000
    Si2674   Si       0.44583    0.68873    0.49918    1.000
    N2675    N        0.44417    0.55220    0.65545    1.000
    Si2676   Si       0.42614    0.61989    0.69517    1.000
    N2677    N        0.45246    0.70740    0.70505    1.000
    N2678    N        0.42275    0.72279    0.64428    1.000
    N2679    N        0.40571    0.63399    0.73015    1.000
    Si2680   Si       0.44955    0.65749    0.62815    1.000
    Si2681   Si       0.41903    0.69504    0.67909    1.000
    Si2682   Si       0.43521    0.73617    0.73438    1.000
    N2683    N        0.43444    0.65619    0.67099    1.000
    Si2684   Si       0.44726    0.75779    0.63611    1.000
    Si2685   Si       0.43428    0.55831    0.79115    1.000
    N2686    N        0.44064    0.59934    0.80782    1.000
    Si2687   Si       0.42923    0.61026    0.84884    1.000
    Si2688   Si       0.42803    0.62145    0.76711    1.000
    N2689    N        0.42268    0.57693    0.75449    1.000
    N2690    N        0.40318    0.53568    0.80898    1.000
    N2691    N        0.42497    0.57382    0.87052    1.000
    N2692    N        0.42888    0.69745    0.83333    1.000
    Si2693   Si       0.42805    0.73312    0.80731    1.000
    N2694    N        0.44184    0.71278    0.77099    1.000
    N2695    N        0.44690    0.60610    0.98155    1.000
    Si2696   Si       0.40992    0.62279    0.96773    1.000
    N2697    N        0.41035    0.51729    0.96701    1.000
    Si2698   Si       0.45831    0.63199    0.90991    1.000
    N2699    N        0.45808    0.52612    0.91338    1.000
    N2700    N        0.40727    0.66078    0.99017    1.000
    N2701    N        0.41534    0.63534    0.92613    1.000
    N2702    N        0.43658    0.72399    0.96942    1.000
    N2703    N        0.45814    0.63814    0.86529    1.000
    N2704    N        0.39863    0.64723    0.78836    1.000
    N2705    N        0.43913    0.78803    0.02405    1.000
    N2706    N        0.41211    0.87625    0.09293    1.000
    Si2707   Si       0.44295    0.90524    0.08603    1.000
    N2708    N        0.44426    0.91486    0.04276    1.000
    Si2709   Si       0.40659    0.92965    0.02132    1.000
    N2710    N        0.43819    0.00254    0.09034    1.000
    N2711    N        0.43939    0.93616    0.11895    1.000
    N2712    N        0.41738    0.80585    0.12031    1.000
    Si2713   Si       0.41438    0.84836    0.12638    1.000
    Si2714   Si       0.44397    0.78821    0.14965    1.000
    N2715    N        0.43327    0.80534    0.18833    1.000
    Si2716   Si       0.42256    0.78137    0.22465    1.000
    N2717    N        0.43693    0.86556    0.15894    1.000
    N2718    N        0.44395    0.85972    0.23501    1.000
    Si2719   Si       0.45260    0.84544    0.19383    1.000
    Si2720   Si       0.40548    0.87709    0.23666    1.000
    Si2721   Si       0.44149    0.91055    0.16080    1.000
    Si2722   Si       0.44489    0.97817    0.12518    1.000
    N2723    N        0.44750    0.93531    0.19970    1.000
    Si2724   Si       0.42891    0.94522    0.23860    1.000
    N2725    N        0.44941    0.00324    0.16451    1.000
    N2726    N        0.41698    0.81609    0.29826    1.000
    Si2727   Si       0.44843    0.83295    0.27029    1.000
    Si2728   Si       0.41813    0.77692    0.31461    1.000
    N2729    N        0.43223    0.76318    0.35493    1.000
    N2730    N        0.45480    0.79621    0.24827    1.000
    N2731    N        0.42454    0.89030    0.33135    1.000
    Si2732   Si       0.41820    0.99934    0.29080    1.000
    N2733    N        0.44102    0.92280    0.27519    1.000
    Si2734   Si       0.40711    0.90762    0.29652    1.000
    N2735    N        0.44677    0.97693    0.31600    1.000
    N2736    N        0.40617    0.98045    0.25272    1.000
    N2737    N        0.44623    0.84517    0.44584    1.000
    Si2738   Si       0.42866    0.84222    0.40664    1.000
    Si2739   Si       0.42974    0.86211    0.48120    1.000
    N2740    N        0.40903    0.80370    0.40425    1.000
    N2741    N        0.40090    0.87735    0.40096    1.000
    Si2742   Si       0.42154    0.75907    0.39801    1.000
    N2743    N        0.40480    0.94892    0.41603    1.000
    Si2744   Si       0.44876    0.94766    0.41776    1.000
    N2745    N        0.44418    0.90378    0.48092    1.000
    N2746    N        0.45576    0.84428    0.37140    1.000
    N2747    N        0.45629    0.98302    0.44157    1.000
    N2748    N        0.43291    0.86055    0.58990    1.000
    Si2749   Si       0.42535    0.81014    0.54255    1.000
    N2750    N        0.43602    0.84895    0.52194    1.000
    N2751    N        0.42370    0.77356    0.51968    1.000
    Si2752   Si       0.44993    0.82343    0.60539    1.000
    Si2753   Si       0.45103    0.87629    0.55285    1.000
    N2754    N        0.45976    0.80243    0.56739    1.000
    N2755    N        0.45825    0.77220    0.74166    1.000
    N2756    N        0.42865    0.91382    0.54916    1.000
    N2757    N        0.43330    0.96718    0.58997    1.000
    Si2758   Si       0.42919    0.93131    0.51026    1.000
    N2759    N        0.44890    0.96876    0.51485    1.000
    Si2760   Si       0.40699    0.93486    0.57944    1.000
    N2761    N        0.42372    0.79069    0.62044    1.000
    Si2762   Si       0.42030    0.85100    0.68251    1.000
    N2763    N        0.43117    0.81106    0.69408    1.000
    N2764    N        0.41245    0.86940    0.72352    1.000
    N2765    N        0.45010    0.87811    0.66526    1.000
    N2766    N        0.43789    0.92971    0.72012    1.000
    Si2767   Si       0.45246    0.92078    0.67986    1.000
    N2768    N        0.40821    0.99032    0.73361    1.000
    N2769    N        0.43286    0.95814    0.66277    1.000
    Si2770   Si       0.41534    0.96400    0.70154    1.000
    Si2771   Si       0.44651    0.98128    0.62926    1.000
    N2772    N        0.44210    0.87024    0.84084    1.000
    Si2773   Si       0.45065    0.79185    0.84734    1.000
    Si2774   Si       0.41639    0.84362    0.75851    1.000
    N2775    N        0.41039    0.80714    0.84085    1.000
    Si2776   Si       0.41098    0.84561    0.86116    1.000
    N2777    N        0.45453    0.76691    0.81058    1.000
    N2778    N        0.45657    0.83369    0.77318    1.000
    Si2779   Si       0.43784    0.90851    0.82078    1.000
    Si2780   Si       0.43578    0.99823    0.76609    1.000
    N2781    N        0.44444    0.90296    0.77834    1.000
    N2782    N        0.40719    0.00095    0.79861    1.000
    N2783    N        0.45542    0.77376    0.88674    1.000
    Si2784   Si       0.43400    0.79426    0.92107    1.000
    Si2785   Si       0.44246    0.81918    0.99263    1.000
    N2786    N        0.42242    0.83324    0.90347    1.000
    Si2787   Si       0.41436    0.86336    0.93641    1.000
    N2788    N        0.40623    0.83604    0.96975    1.000
    N2789    N        0.39948    0.76968    0.92712    1.000
    N2790    N        0.43202    0.95629    0.91824    1.000
    Si2791   Si       0.41585    0.92745    0.94698    1.000
    N2792    N        0.44366    0.89347    0.94908    1.000
    N2793    N        0.39764    0.94917    0.98021    1.000
    Si2794   Si       0.41024    0.90563    0.74621    1.000
    N2795    N        0.48253    0.05225    0.04469    1.000
    N2796    N        0.50550    0.07099    0.09961    1.000
    Si2797   Si       0.47085    0.08992    0.07701    1.000
    Si2798   Si       0.49537    0.04550    0.00358    1.000
    N2799    N        0.47887    0.16674    0.15143    1.000
    N2800    N        0.47103    0.17857    0.00693    1.000
    Si2801   Si       0.47231    0.22137    0.06745    1.000
    Si2802   Si       0.48659    0.15559    0.03995    1.000
    N2803    N        0.47809    0.17949    0.07666    1.000
    N2804    N        0.49420    0.23973    0.10022    1.000
    N2805    N        0.47527    0.24229    0.02920    1.000
    Si2806   Si       0.46074    0.15888    0.11149    1.000
    Si2807   Si       0.49868    0.08232    0.14018    1.000
    N2808    N        0.51525    0.04275    0.15970    1.000
    N2809    N        0.48529    0.04465    0.22083    1.000
    N2810    N        0.46182    0.07801    0.16203    1.000
    Si2811   Si       0.51942    0.15749    0.16387    1.000
    N2812    N        0.46179    0.11515    0.10963    1.000
    Si2813   Si       0.51515    0.18325    0.24462    1.000
    N2814    N        0.47873    0.08883    0.28920    1.000
    Si2815   Si       0.48028    0.01802    0.25555    1.000
    N2816    N        0.49214    0.02551    0.35987    1.000
    Si2817   Si       0.49981    0.12479    0.28592    1.000
    Si2818   Si       0.51564    0.11154    0.35796    1.000
    N2819    N        0.51408    0.02847    0.27944    1.000
    N2820    N        0.49589    0.22372    0.25438    1.000
    N2821    N        0.49602    0.13826    0.32793    1.000
    N2822    N        0.50359    0.20629    0.31997    1.000
    Si2823   Si       0.47587    0.22961    0.29496    1.000
    Si2824   Si       0.48262    0.17709    0.34349    1.000
    N2825    N        0.48756    0.15261    0.25731    1.000
    Si2826   Si       0.46860    0.06097    0.37228    1.000
    N2827    N        0.46142    0.05075    0.41794    1.000
    Si2828   Si       0.48374    0.08649    0.42865    1.000
    N2829    N        0.48664    0.09900    0.38707    1.000
    N2830    N        0.50024    0.18169    0.38346    1.000
    N2831    N        0.50619    0.22738    0.43700    1.000
    Si2832   Si       0.47976    0.21189    0.40867    1.000
    N2833    N        0.47260    0.17246    0.49071    1.000
    N2834    N        0.51949    0.14818    0.44287    1.000
    Si2835   Si       0.47708    0.15692    0.45145    1.000
    Si2836   Si       0.51850    0.06801    0.29507    1.000
    Si2837   Si       0.46339    0.21466    0.49680    1.000
    N2838    N        0.49097    0.07283    0.53727    1.000
    Si2839   Si       0.47805    0.06197    0.57898    1.000
    Si2840   Si       0.47065    0.03990    0.52150    1.000
    N2841    N        0.51118    0.04240    0.59680    1.000
    N2842    N        0.49997    0.01290    0.50509    1.000
    N2843    N        0.45435    0.02376    0.55785    1.000
    Si2844   Si       0.48107    0.14883    0.52745    1.000
    Si2845   Si       0.49536    0.18187    0.59568    1.000
    N2846    N        0.49553    0.23531    0.51458    1.000
    N2847    N        0.50061    0.17986    0.55162    1.000
    N2848    N        0.49799    0.14238    0.61356    1.000
    N2849    N        0.46154    0.20877    0.60041    1.000
    N2850    N        0.51704    0.12792    0.50936    1.000
    N2851    N        0.51136    0.07494    0.69666    1.000
    N2852    N        0.46441    0.09365    0.73409    1.000
    Si2853   Si       0.47696    0.05143    0.71912    1.000
    N2854    N        0.47180    0.08191    0.64307    1.000
    Si2855   Si       0.49806    0.11364    0.71476    1.000
    Si2856   Si       0.51021    0.06667    0.65395    1.000
    Si2857   Si       0.47117    0.12519    0.64364    1.000
    N2858    N        0.51013    0.02191    0.72875    1.000
    N2859    N        0.46505    0.20060    0.66947    1.000
    Si2860   Si       0.49830    0.18119    0.68821    1.000
    N2861    N        0.48955    0.13899    0.68158    1.000
    Si2862   Si       0.46447    0.23164    0.63802    1.000
    N2863    N        0.49308    0.18134    0.73373    1.000
    N2864    N        0.50703    0.24956    0.71442    1.000
    Si2865   Si       0.47645    0.24207    0.74579    1.000
    N2866    N        0.48635    0.08541    0.79603    1.000
    Si2867   Si       0.49025    0.05474    0.82741    1.000
    N2868    N        0.50194    0.01446    0.81337    1.000
    Si2869   Si       0.51398    0.11822    0.78622    1.000
    N2870    N        0.49197    0.15431    0.79847    1.000
    N2871    N        0.50066    0.22942    0.78088    1.000
    Si2872   Si       0.51041    0.18654    0.77494    1.000
    N2873    N        0.46005    0.23880    0.89420    1.000
    N2874    N        0.46713    0.10901    0.88279    1.000
    N2875    N        0.50633    0.06455    0.92006    1.000
    Si2876   Si       0.50855    0.09648    0.88952    1.000
    Si2877   Si       0.47337    0.04040    0.93163    1.000
    N2878    N        0.46368    0.04584    0.97458    1.000
    N2879    N        0.48823    0.17690    0.90973    1.000
    N2880    N        0.49059    0.23917    0.96838    1.000
    Si2881   Si       0.47965    0.21664    0.92714    1.000
    N2882    N        0.50503    0.33620    0.07583    1.000
    N2883    N        0.46565    0.30192    0.00288    1.000
    Si2884   Si       0.46073    0.33457    0.07791    1.000
    Si2885   Si       0.50014    0.27550    0.99968    1.000
    N2886    N        0.48331    0.41259    0.05854    1.000
    N2887    N        0.49959    0.45714    0.11169    1.000
    Si2888   Si       0.48668    0.41602    0.10143    1.000
    N2889    N        0.47504    0.36904    0.23418    1.000
    N2890    N        0.50871    0.27985    0.21077    1.000
    Si2891   Si       0.46631    0.29053    0.21690    1.000
    N2892    N        0.49742    0.42240    0.19330    1.000
    Si2893   Si       0.48545    0.46265    0.20036    1.000
    Si2894   Si       0.47048    0.41565    0.15986    1.000
    Si2895   Si       0.46729    0.47845    0.12907    1.000
    N2896    N        0.46657    0.45884    0.24161    1.000
    N2897    N        0.50465    0.39669    0.13603    1.000
    Si2898   Si       0.50999    0.38986    0.21697    1.000
    N2899    N        0.48224    0.34041    0.30286    1.000
    Si2900   Si       0.47502    0.30070    0.28845    1.000
    N2901    N        0.46762    0.26788    0.31370    1.000
    Si2902   Si       0.51055    0.34906    0.33401    1.000
    Si2903   Si       0.46699    0.37123    0.27775    1.000
    N2904    N        0.50682    0.37358    0.36873    1.000
    N2905    N        0.51532    0.29015    0.27384    1.000
    N2906    N        0.46748    0.41270    0.29125    1.000
    Si2907   Si       0.49527    0.43900    0.27073    1.000
    N2908    N        0.47283    0.44725    0.35562    1.000
    Si2909   Si       0.46712    0.48877    0.36109    1.000
    N2910    N        0.49550    0.41058    0.45673    1.000
    Si2911   Si       0.52131    0.26773    0.43800    1.000
    N2912    N        0.50400    0.35093    0.48936    1.000
    N2913    N        0.49077    0.29512    0.45279    1.000
    Si2914   Si       0.50106    0.33597    0.44859    1.000
    N2915    N        0.46456    0.35234    0.43145    1.000
    Si2916   Si       0.47322    0.50306    0.47234    1.000
    Si2917   Si       0.48808    0.41268    0.37674    1.000
    N2918    N        0.49856    0.48276    0.44361    1.000
    Si2919   Si       0.51566    0.50931    0.25141    1.000
    Si2920   Si       0.48096    0.33071    0.51954    1.000
    N2921    N        0.50996    0.30394    0.53525    1.000
    Si2922   Si       0.48885    0.26542    0.54553    1.000
    Si2923   Si       0.50666    0.28618    0.61192    1.000
    N2924    N        0.50815    0.37689    0.58281    1.000
    N2925    N        0.51236    0.25595    0.58165    1.000
    Si2926   Si       0.48883    0.35786    0.61910    1.000
    Si2927   Si       0.48469    0.39472    0.55159    1.000
    Si2928   Si       0.48173    0.46745    0.54910    1.000
    Si2929   Si       0.46928    0.42347    0.61233    1.000
    N2930    N        0.46945    0.50120    0.57251    1.000
    N2931    N        0.46737    0.47926    0.50949    1.000
    N2932    N        0.46234    0.43184    0.56742    1.000
    N2933    N        0.50930    0.43228    0.62528    1.000
    N2934    N        0.51798    0.40605    0.52632    1.000
    N2935    N        0.47608    0.31510    0.62210    1.000
    Si2936   Si       0.49810    0.27936    0.68447    1.000
    N2937    N        0.49658    0.26011    0.64647    1.000
    Si2938   Si       0.49771    0.46839    0.64744    1.000
    Si2939   Si       0.48766    0.44946    0.72045    1.000
    N2940    N        0.51210    0.46116    0.68731    1.000
    N2941    N        0.48107    0.40777    0.72904    1.000
    N2942    N        0.51284    0.50491    0.63044    1.000
    N2943    N        0.51010    0.29579    0.80762    1.000
    N2944    N        0.46687    0.28361    0.75593    1.000
    Si2945   Si       0.46810    0.29592    0.79989    1.000
    Si2946   Si       0.48345    0.26462    0.86714    1.000
    Si2947   Si       0.48517    0.37165    0.75420    1.000
    N2948    N        0.51356    0.35805    0.82999    1.000
    N2949    N        0.46436    0.37672    0.79078    1.000
    Si2950   Si       0.51063    0.33748    0.86987    1.000
    N2951    N        0.49167    0.47500    0.75807    1.000
    Si2952   Si       0.49233    0.39368    0.81878    1.000
    Si2953   Si       0.48382    0.45642    0.79497    1.000
    N2954    N        0.50092    0.47824    0.82878    1.000
    N2955    N        0.46962    0.42442    0.83812    1.000
    Si2956   Si       0.49185    0.45307    0.86422    1.000
    N2957    N        0.51343    0.42032    0.79202    1.000
    N2958    N        0.48240    0.30553    0.87896    1.000
    N2959    N        0.50110    0.37254    0.89376    1.000
    N2960    N        0.50693    0.41324    0.94278    1.000
    N2961    N        0.47926    0.37299    0.99584    1.000
    Si2962   Si       0.51532    0.39014    0.97824    1.000
    N2963    N        0.46553    0.47776    0.96315    1.000
    N2964    N        0.46664    0.45736    0.90065    1.000
    Si2965   Si       0.47069    0.44007    0.94232    1.000
    N2966    N        0.51939    0.34663    0.75516    1.000
    N2967    N        0.48506    0.58702    0.03725    1.000
    N2968    N        0.49187    0.58002    0.10778    1.000
    Si2969   Si       0.49693    0.53675    0.10103    1.000
    Si2970   Si       0.47479    0.60512    0.07518    1.000
    N2971    N        0.47882    0.51929    0.06687    1.000
    Si2972   Si       0.49821    0.66274    0.04245    1.000
    N2973    N        0.48372    0.64642    0.08038    1.000
    N2974    N        0.47515    0.66420    0.00653    1.000
    N2975    N        0.48974    0.74679    0.00438    1.000
    Si2976   Si       0.46070    0.75228    0.03910    1.000
    N2977    N        0.47245    0.75579    0.08214    1.000
    Si2978   Si       0.48131    0.65626    0.12418    1.000
    Si2979   Si       0.47214    0.57299    0.22232    1.000
    N2980    N        0.48960    0.58234    0.18395    1.000
    Si2981   Si       0.50934    0.59244    0.14661    1.000
    N2982    N        0.47000    0.52293    0.13326    1.000
    N2983    N        0.48710    0.53904    0.24458    1.000
    N2984    N        0.48807    0.69804    0.12304    1.000
    Si2985   Si       0.48335    0.69758    0.21933    1.000
    N2986    N        0.51141    0.66519    0.22689    1.000
    N2987    N        0.48990    0.73339    0.24349    1.000
    N2988    N        0.51487    0.63555    0.14109    1.000
    Si2989   Si       0.45955    0.57087    0.00572    1.000
    Si2990   Si       0.49220    0.54526    0.35243    1.000
    Si2991   Si       0.50263    0.60912    0.32340    1.000
    N2992    N        0.46955    0.60696    0.24827    1.000
    N2993    N        0.51792    0.56817    0.32631    1.000
    Si2994   Si       0.47520    0.64445    0.44912    1.000
    Si2995   Si       0.51899    0.68562    0.43059    1.000
    Si2996   Si       0.48952    0.64505    0.25799    1.000
    N2997    N        0.49576    0.64286    0.35398    1.000
    Si2998   Si       0.47064    0.74960    0.34079    1.000
    N2999    N        0.48311    0.71340    0.35832    1.000
    Si3000   Si       0.51346    0.68215    0.35311    1.000
    N3001    N        0.46126    0.67723    0.26655    1.000
    N3002    N        0.51829    0.63351    0.29027    1.000
    Si3003   Si       0.46934    0.58192    0.48175    1.000
    N3004    N        0.47544    0.60035    0.44159    1.000
    N3005    N        0.48200    0.57415    0.38500    1.000
    N3006    N        0.48951    0.54415    0.48191    1.000
    Si3007   Si       0.51054    0.58019    0.41635    1.000
    N3008    N        0.50197    0.50906    0.37831    1.000
    N3009    N        0.47595    0.67967    0.41985    1.000
    Si3010   Si       0.48234    0.74658    0.44801    1.000
    N3011    N        0.51806    0.65248    0.45770    1.000
    N3012    N        0.51924    0.72624    0.44422    1.000
    Si3013   Si       0.49953    0.52548    0.59354    1.000
    N3014    N        0.48319    0.56511    0.60267    1.000
    Si3015   Si       0.49299    0.60699    0.60967    1.000
    N3016    N        0.50670    0.62094    0.57125    1.000
    N3017    N        0.48888    0.61005    0.50733    1.000
    Si3018   Si       0.49760    0.64219    0.53351    1.000
    N3019    N        0.48151    0.68090    0.52379    1.000
    Si3020   Si       0.50057    0.71372    0.61203    1.000
    N3021    N        0.47283    0.74529    0.60224    1.000
    Si3022   Si       0.51212    0.71289    0.53295    1.000
    N3023    N        0.49357    0.75245    0.53215    1.000
    Si3024   Si       0.47104    0.55867    0.68983    1.000
    N3025    N        0.46623    0.60217    0.70132    1.000
    N3026    N        0.46108    0.52564    0.71944    1.000
    N3027    N        0.51358    0.55276    0.68040    1.000
    Si3028   Si       0.49135    0.63011    0.72337    1.000
    N3029    N        0.50682    0.66301    0.69654    1.000
    Si3030   Si       0.49736    0.70359    0.71296    1.000
    N3031    N        0.48777    0.67574    0.62934    1.000
    N3032    N        0.49303    0.54855    0.85890    1.000
    Si3033   Si       0.47945    0.51868    0.83190    1.000
    N3034    N        0.46828    0.53187    0.79237    1.000
    Si3035   Si       0.48700    0.52018    0.75449    1.000
    N3036    N        0.49142    0.68529    0.81732    1.000
    Si3037   Si       0.47312    0.68282    0.77721    1.000
    N3038    N        0.46600    0.64239    0.75651    1.000
    N3039    N        0.50754    0.69611    0.75435    1.000
    N3040    N        0.50992    0.74815    0.85276    1.000
    Si3041   Si       0.46434    0.67820    0.85273    1.000
    N3042    N        0.49909    0.73382    0.93315    1.000
    N3043    N        0.47420    0.59343    0.91468    1.000
    Si3044   Si       0.48114    0.51887    0.94934    1.000
    N3045    N        0.50969    0.60318    0.97770    1.000
    N3046    N        0.47691    0.53189    0.99227    1.000
    Si3047   Si       0.51145    0.58525    0.93893    1.000
    Si3048   Si       0.46284    0.56155    0.88836    1.000
    N3049    N        0.48297    0.69855    0.88613    1.000
    Si3050   Si       0.50097    0.69003    0.92473    1.000
    Si3051   Si       0.48480    0.74264    0.89083    1.000
    Si3052   Si       0.48065    0.63563    0.97639    1.000
    Si3053   Si       0.47285    0.74896    0.96507    1.000
    N3054    N        0.47923    0.65738    0.94014    1.000
    Si3055   Si       0.50445    0.77673    0.10616    1.000
    Si3056   Si       0.51533    0.85440    0.08516    1.000
    N3057    N        0.51306    0.87168    0.04603    1.000
    N3058    N        0.46269    0.85542    0.99997    1.000
    N3059    N        0.52064    0.81148    0.08606    1.000
    N3060    N        0.48039    0.88296    0.09547    1.000
    Si3061   Si       0.47617    0.88841    0.02813    1.000
    N3062    N        0.51419    0.00725    0.00578    1.000
    N3063    N        0.48625    0.79455    0.14152    1.000
    N3064    N        0.49730    0.84511    0.19152    1.000
    Si3065   Si       0.51511    0.80879    0.17288    1.000
    Si3066   Si       0.50929    0.90407    0.12277    1.000
    Si3067   Si       0.49214    0.00237    0.16334    1.000
    N3068    N        0.51005    0.91391    0.22684    1.000
    N3069    N        0.51035    0.97332    0.18884    1.000
    N3070    N        0.48842    0.91137    0.15866    1.000
    Si3071   Si       0.49082    0.93653    0.19620    1.000
    N3072    N        0.49017    0.98195    0.12320    1.000
    N3073    N        0.47890    0.84873    0.29945    1.000
    N3074    N        0.49633    0.78523    0.34490    1.000
    Si3075   Si       0.48388    0.76973    0.26730    1.000
    Si3076   Si       0.46301    0.86886    0.33343    1.000
    N3077    N        0.48908    0.89858    0.34817    1.000
    Si3078   Si       0.47021    0.95192    0.29004    1.000
    N3079    N        0.47055    0.97547    0.25282    1.000
    N3080    N        0.51049    0.94309    0.29699    1.000
    Si3081   Si       0.46263    0.99411    0.35444    1.000
    Si3082   Si       0.48047    0.80954    0.37650    1.000
    Si3083   Si       0.48415    0.82628    0.45260    1.000
    N3084    N        0.50372    0.81592    0.41315    1.000
    N3085    N        0.47832    0.78562    0.46891    1.000
    N3086    N        0.49866    0.86034    0.47675    1.000
    N3087    N        0.47593    0.91352    0.42054    1.000
    Si3088   Si       0.48193    0.89937    0.46067    1.000
    Si3089   Si       0.46630    0.99214    0.48389    1.000
    Si3090   Si       0.49683    0.92272    0.38346    1.000
    N3091    N        0.51200    0.92211    0.47952    1.000
    N3092    N        0.47265    0.96015    0.37949    1.000
    Si3093   Si       0.48924    0.77057    0.57107    1.000
    N3094    N        0.49493    0.88354    0.54923    1.000
    Si3095   Si       0.51325    0.88921    0.50996    1.000
    N3096    N        0.49808    0.96342    0.56139    1.000
    N3097    N        0.50197    0.90411    0.62029    1.000
    Si3098   Si       0.45955    0.97995    0.55590    1.000
    Si3099   Si       0.52013    0.00402    0.61863    1.000
    N3100    N        0.48726    0.83738    0.62335    1.000
    N3101    N        0.51045    0.80612    0.71357    1.000
    N3102    N        0.47491    0.76918    0.66752    1.000
    Si3103   Si       0.46857    0.79087    0.70391    1.000
    Si3104   Si       0.48941    0.87186    0.64794    1.000
    Si3105   Si       0.51837    0.76253    0.66838    1.000
    Si3106   Si       0.50939    0.94082    0.64294    1.000
    N3107    N        0.49455    0.92932    0.68006    1.000
    N3108    N        0.49643    0.89987    0.74353    1.000
    N3109    N        0.48881    0.97683    0.62793    1.000
    Si3110   Si       0.46315    0.76340    0.50398    1.000
    N3111    N        0.48821    0.81459    0.84191    1.000
    Si3112   Si       0.48618    0.85725    0.84072    1.000
    Si3113   Si       0.47732    0.87206    0.77228    1.000
    N3114    N        0.50492    0.86900    0.80417    1.000
    Si3115   Si       0.47014    0.79218    0.77783    1.000
    N3116    N        0.51165    0.78911    0.78427    1.000
    Si3117   Si       0.51679    0.78403    0.82776    1.000
    N3118    N        0.50603    0.88179    0.87105    1.000
    N3119    N        0.46726    0.93360    0.83657    1.000
    Si3120   Si       0.48736    0.97359    0.83284    1.000
    N3121    N        0.47039    0.97098    0.77045    1.000
    Si3122   Si       0.49991    0.92246    0.86297    1.000
    Si3123   Si       0.46737    0.93199    0.75257    1.000
    Si3124   Si       0.50047    0.00418    0.76798    1.000
    N3125    N        0.46780    0.98868    0.86824    1.000
    N3126    N        0.49852    0.85445    0.93585    1.000
    Si3127   Si       0.50265    0.81509    0.95535    1.000
    Si3128   Si       0.47821    0.87671    0.96486    1.000
    N3129    N        0.46316    0.79337    0.95745    1.000
    N3130    N        0.48796    0.99897    0.93507    1.000
    N3131    N        0.49806    0.93691    0.90433    1.000
    N3132    N        0.49548    0.90663    0.99472    1.000
    Si3133   Si       0.47108    0.96984    0.90780    1.000
    N3134    N        0.55921    0.06050    0.05692    1.000
    N3135    N        0.57124    0.22254    0.09894    1.000
    Si3136   Si       0.57101    0.15337    0.03565    1.000
    N3137    N        0.52873    0.14888    0.02937    1.000
    Si3138   Si       0.53674    0.24414    0.11551    1.000
    N3139    N        0.55895    0.01937    0.19725    1.000
    N3140    N        0.54627    0.08309    0.21043    1.000
    Si3141   Si       0.55677    0.03128    0.15297    1.000
    Si3142   Si       0.56213    0.09815    0.17375    1.000
    N3143    N        0.52567    0.11339    0.15402    1.000
    Si3144   Si       0.52258    0.04822    0.20192    1.000
    N3145    N        0.52712    0.18159    0.20326    1.000
    Si3146   Si       0.55446    0.21068    0.18560    1.000
    N3147    N        0.55621    0.17366    0.14646    1.000
    N3148    N        0.55833    0.24364    0.21902    1.000
    N3149    N        0.53872    0.24139    0.15822    1.000
    Si3150   Si       0.58008    0.18185    0.11145    1.000
    N3151    N        0.58038    0.15642    0.07715    1.000
    Si3152   Si       0.51966    0.04595    0.06836    1.000
    Si3153   Si       0.53749    0.03708    0.35665    1.000
    N3154    N        0.53933    0.10573    0.27991    1.000
    N3155    N        0.56255    0.01997    0.32541    1.000
    N3156    N        0.53012    0.07521    0.33743    1.000
    Si3157   Si       0.55504    0.00907    0.28039    1.000
    Si3158   Si       0.56500    0.08786    0.24893    1.000
    N3159    N        0.56491    0.18903    0.42248    1.000
    Si3160   Si       0.56839    0.13849    0.28422    1.000
    N3161    N        0.54597    0.17378    0.27619    1.000
    Si3162   Si       0.54489    0.20579    0.30678    1.000
    N3163    N        0.55077    0.24471    0.29010    1.000
    N3164    N        0.57389    0.19193    0.33676    1.000
    Si3165   Si       0.54251    0.14642    0.47860    1.000
    N3166    N        0.57461    0.04639    0.25932    1.000
    Si3167   Si       0.55596    0.04735    0.43446    1.000
    N3168    N        0.56032    0.03358    0.39333    1.000
    N3169    N        0.52314    0.07357    0.43922    1.000
    Si3170   Si       0.54449    0.21397    0.45392    1.000
    N3171    N        0.54681    0.13487    0.37570    1.000
    Si3172   Si       0.53286    0.16414    0.40506    1.000
    N3173    N        0.55512    0.25400    0.46225    1.000
    N3174    N        0.54411    0.18948    0.48857    1.000
    Si3175   Si       0.52710    0.25532    0.24959    1.000
    Si3176   Si       0.54618    0.06782    0.59630    1.000
    N3177    N        0.54130    0.10249    0.57182    1.000
    N3178    N        0.55467    0.06612    0.51098    1.000
    Si3179   Si       0.52738    0.09339    0.53241    1.000
    Si3180   Si       0.53951    0.12779    0.60880    1.000
    Si3181   Si       0.54184    0.02269    0.50537    1.000
    N3182    N        0.56834    0.21874    0.73821    1.000
    N3183    N        0.56021    0.22578    0.54614    1.000
    Si3184   Si       0.54755    0.23209    0.58776    1.000
    N3185    N        0.53275    0.19838    0.61055    1.000
    Si3186   Si       0.52792    0.20554    0.52482    1.000
    N3187    N        0.54102    0.08974    0.63602    1.000
    Si3188   Si       0.54148    0.03051    0.69609    1.000
    Si3189   Si       0.57012    0.11631    0.73579    1.000
    N3190    N        0.52600    0.02632    0.65603    1.000
    N3191    N        0.57688    0.05747    0.68822    1.000
    N3192    N        0.52863    0.12023    0.74619    1.000
    N3193    N        0.57340    0.25694    0.68964    1.000
    Si3194   Si       0.56035    0.18316    0.64224    1.000
    N3195    N        0.54193    0.18894    0.68078    1.000
    N3196    N        0.57419    0.14601    0.62491    1.000
    Si3197   Si       0.55799    0.08341    0.83325    1.000
    N3198    N        0.55153    0.11746    0.81067    1.000
    N3199    N        0.56409    0.05183    0.80459    1.000
    Si3200   Si       0.54481    0.01226    0.81424    1.000
    N3201    N        0.52110    0.07236    0.85403    1.000
    N3202    N        0.56450    0.25301    0.80168    1.000
    N3203    N        0.55017    0.18500    0.79419    1.000
    Si3204   Si       0.52067    0.25443    0.81085    1.000
    N3205    N        0.51845    0.24593    0.85321    1.000
    Si3206   Si       0.57750    0.15147    0.80243    1.000
    Si3207   Si       0.57641    0.21670    0.78065    1.000
    Si3208   Si       0.57668    0.12973    0.92867    1.000
    N3209    N        0.57380    0.08533    0.93585    1.000
    N3210    N        0.55210    0.02297    0.95641    1.000
    Si3211   Si       0.53892    0.06424    0.94941    1.000
    N3212    N        0.53293    0.12934    0.90244    1.000
    N3213    N        0.52377    0.07572    0.98832    1.000
    N3214    N        0.56512    0.23574    0.98324    1.000
    Si3215   Si       0.53203    0.24832    0.95528    1.000
    Si3216   Si       0.54598    0.22980    0.88094    1.000
    N3217    N        0.55811    0.16957    0.94608    1.000
    Si3218   Si       0.53292    0.17333    0.90943    1.000
    N3219    N        0.55972    0.18849    0.87693    1.000
    N3220    N        0.52503    0.22494    0.91958    1.000
    N3221    N        0.54330    0.28507    0.10481    1.000
    Si3222   Si       0.54025    0.35962    0.08436    1.000
    N3223    N        0.56477    0.33185    0.05993    1.000
    N3224    N        0.53183    0.27838    0.03104    1.000
    Si3225   Si       0.53261    0.30118    0.06631    1.000
    Si3226   Si       0.57224    0.26735    0.01185    1.000
    N3227    N        0.54565    0.39992    0.07462    1.000
    Si3228   Si       0.54837    0.46132    0.00697    1.000
    N3229    N        0.53319    0.46561    0.04853    1.000
    N3230    N        0.56779    0.46219    0.10538    1.000
    Si3231   Si       0.53102    0.47977    0.08864    1.000
    N3232    N        0.53140    0.41955    0.00486    1.000
    Si3233   Si       0.52190    0.42459    0.04731    1.000
    N3234    N        0.57550    0.40834    0.14473    1.000
    N3235    N        0.55259    0.34809    0.12576    1.000
    Si3236   Si       0.57035    0.30883    0.12666    1.000
    Si3237   Si       0.54474    0.27435    0.18698    1.000
    N3238    N        0.54390    0.37052    0.19598    1.000
    N3239    N        0.57589    0.29705    0.16823    1.000
    Si3240   Si       0.54157    0.38062    0.15263    1.000
    N3241    N        0.52107    0.48711    0.21220    1.000
    Si3242   Si       0.56553    0.49287    0.20846    1.000
    Si3243   Si       0.54700    0.28767    0.30384    1.000
    N3244    N        0.53160    0.31033    0.33946    1.000
    N3245    N        0.54003    0.37140    0.31238    1.000
    Si3246   Si       0.56780    0.37891    0.34350    1.000
    Si3247   Si       0.52201    0.44468    0.44212    1.000
    N3248    N        0.52085    0.47446    0.27854    1.000
    Si3249   Si       0.55432    0.39308    0.27825    1.000
    Si3250   Si       0.56316    0.48445    0.28318    1.000
    N3251    N        0.56861    0.41983    0.35533    1.000
    N3252    N        0.52302    0.41101    0.25284    1.000
    N3253    N        0.55378    0.47109    0.42072    1.000
    Si3254   Si       0.55803    0.31032    0.37510    1.000
    N3255    N        0.57210    0.31191    0.49012    1.000
    N3256    N        0.53620    0.28579    0.40271    1.000
    N3257    N        0.56999    0.35386    0.37829    1.000
    N3258    N        0.53751    0.35322    0.43561    1.000
    Si3259   Si       0.57196    0.34379    0.46040    1.000
    N3260    N        0.56760    0.38028    0.48667    1.000
    Si3261   Si       0.53969    0.37958    0.40138    1.000
    N3262    N        0.52298    0.42233    0.40140    1.000
    Si3263   Si       0.56687    0.43974    0.39436    1.000
    N3264    N        0.55137    0.44015    0.47711    1.000
    Si3265   Si       0.52436    0.38834    0.48662    1.000
    Si3266   Si       0.52525    0.50572    0.41600    1.000
    N3267    N        0.57989    0.40400    0.42018    1.000
    Si3268   Si       0.55289    0.31481    0.52967    1.000
    N3269    N        0.56174    0.35345    0.54834    1.000
    N3270    N        0.54460    0.30580    0.61624    1.000
    Si3271   Si       0.54713    0.38850    0.57210    1.000
    Si3272   Si       0.54826    0.43980    0.52125    1.000
    Si3273   Si       0.54955    0.50270    0.53788    1.000
    N3274    N        0.56699    0.39640    0.60889    1.000
    N3275    N        0.52447    0.46781    0.54420    1.000
    N3276    N        0.57830    0.41647    0.54821    1.000
    Si3277   Si       0.54359    0.32667    0.72559    1.000
    Si3278   Si       0.54495    0.32772    0.65268    1.000
    N3279    N        0.52640    0.31024    0.68817    1.000
    N3280    N        0.52179    0.36416    0.64667    1.000
    N3281    N        0.57379    0.35497    0.71449    1.000
    N3282    N        0.55853    0.29067    0.74773    1.000
    Si3283   Si       0.53840    0.40253    0.63998    1.000
    N3284    N        0.57617    0.48486    0.71406    1.000
    Si3285   Si       0.55426    0.45311    0.69571    1.000
    N3286    N        0.56694    0.42887    0.66177    1.000
    N3287    N        0.55513    0.42253    0.72708    1.000
    Si3288   Si       0.58190    0.29437    0.59704    1.000
    Si3289   Si       0.54789    0.25563    0.72476    1.000
    Si3290   Si       0.52947    0.33379    0.79719    1.000
    N3291    N        0.57161    0.32642    0.80677    1.000
    N3292    N        0.54330    0.49509    0.98062    1.000
    N3293    N        0.55069    0.32278    0.87248    1.000
    Si3294   Si       0.54460    0.48189    0.81581    1.000
    N3295    N        0.56226    0.46513    0.78040    1.000
    Si3296   Si       0.55063    0.42359    0.77104    1.000
    N3297    N        0.57160    0.46911    0.84577    1.000
    N3298    N        0.54203    0.35995    0.96477    1.000
    Si3299   Si       0.55935    0.32113    0.96759    1.000
    N3300    N        0.52725    0.28961    0.96657    1.000
    N3301    N        0.58189    0.47902    0.92640    1.000
    Si3302   Si       0.52896    0.40273    0.90747    1.000
    N3303    N        0.56956    0.39136    0.91080    1.000
    Si3304   Si       0.55890    0.46889    0.88771    1.000
    N3305    N        0.52689    0.43899    0.88385    1.000
    N3306    N        0.53877    0.50750    0.89014    1.000
    N3307    N        0.54842    0.55962    0.01452    1.000
    N3308    N        0.53652    0.51974    0.10279    1.000
    Si3309   Si       0.56689    0.54949    0.11246    1.000
    Si3310   Si       0.52416    0.59536    0.01892    1.000
    N3311    N        0.57557    0.57424    0.07987    1.000
    N3312    N        0.53374    0.63355    0.03660    1.000
    Si3313   Si       0.53092    0.73407    0.01688    1.000
    Si3314   Si       0.55934    0.66737    0.03488    1.000
    N3315    N        0.52669    0.69768    0.03858    1.000
    N3316    N        0.53612    0.75348    0.12726    1.000
    Si3317   Si       0.54521    0.68347    0.20731    1.000
    N3318    N        0.55124    0.57385    0.14682    1.000
    N3319    N        0.57215    0.53641    0.20572    1.000
    N3320    N        0.55480    0.68587    0.13361    1.000
    N3321    N        0.57221    0.65487    0.18740    1.000
    Si3322   Si       0.52383    0.71442    0.14244    1.000
    Si3323   Si       0.52764    0.74072    0.21921    1.000
    Si3324   Si       0.55587    0.64477    0.14754    1.000
    N3325    N        0.56188    0.71361    0.23165    1.000
    N3326    N        0.51671    0.71304    0.18621    1.000
    N3327    N        0.54998    0.53111    0.27013    1.000
    Si3328   Si       0.55437    0.56238    0.30342    1.000
    N3329    N        0.56983    0.58897    0.27138    1.000
    N3330    N        0.57140    0.62135    0.33598    1.000
    Si3331   Si       0.55654    0.65001    0.30669    1.000
    N3332    N        0.54946    0.68927    0.32425    1.000
    N3333    N        0.55853    0.75734    0.33324    1.000
    Si3334   Si       0.53122    0.55219    0.47613    1.000
    N3335    N        0.54703    0.60032    0.40769    1.000
    N3336    N        0.53231    0.54640    0.43187    1.000
    N3337    N        0.55699    0.58971    0.48352    1.000
    Si3338   Si       0.54654    0.63150    0.48546    1.000
    Si3339   Si       0.57367    0.56314    0.41215    1.000
    Si3340   Si       0.57360    0.62101    0.37925    1.000
    Si3341   Si       0.55842    0.74586    0.44118    1.000
    N3342    N        0.53673    0.68418    0.39040    1.000
    Si3343   Si       0.57987    0.72058    0.32429    1.000
    N3344    N        0.53590    0.52737    0.57082    1.000
    Si3345   Si       0.55015    0.61866    0.56059    1.000
    Si3346   Si       0.56872    0.55321    0.58318    1.000
    N3347    N        0.55255    0.52918    0.50445    1.000
    N3348    N        0.56681    0.58121    0.55012    1.000
    Si3349   Si       0.56398    0.73791    0.72009    1.000
    N3350    N        0.57694    0.62655    0.59451    1.000
    N3351    N        0.55274    0.56765    0.62197    1.000
    N3352    N        0.54186    0.64538    0.52772    1.000
    Si3353   Si       0.56560    0.72888    0.57617    1.000
    N3354    N        0.54941    0.70847    0.50870    1.000
    N3355    N        0.52359    0.71370    0.57423    1.000
    N3356    N        0.52761    0.73023    0.63937    1.000
    Si3357   Si       0.56211    0.60789    0.63361    1.000
    N3358    N        0.52845    0.60898    0.73233    1.000
    Si3359   Si       0.53447    0.56741    0.71605    1.000
    Si3360   Si       0.53925    0.53380    0.64888    1.000
    N3361    N        0.52196    0.62234    0.64003    1.000
    N3362    N        0.56396    0.67787    0.65256    1.000
    N3363    N        0.52355    0.73774    0.70445    1.000
    Si3364   Si       0.52154    0.66321    0.65635    1.000
    Si3365   Si       0.56981    0.71920    0.64601    1.000
    N3366    N        0.58169    0.68962    0.56473    1.000
    N3367    N        0.57655    0.56361    0.70530    1.000
    N3368    N        0.58030    0.51890    0.65343    1.000
    N3369    N        0.57537    0.69917    0.73894    1.000
    Si3370   Si       0.55567    0.54691    0.78160    1.000
    N3371    N        0.54362    0.52602    0.81778    1.000
    Si3372   Si       0.55941    0.61981    0.76216    1.000
    Si3373   Si       0.53608    0.53925    0.85985    1.000
    N3374    N        0.56602    0.58710    0.79050    1.000
    N3375    N        0.56809    0.56894    0.86376    1.000
    N3376    N        0.52481    0.54103    0.75043    1.000
    Si3377   Si       0.54517    0.69278    0.77200    1.000
    N3378    N        0.55222    0.68008    0.85707    1.000
    N3379    N        0.55407    0.72061    0.80501    1.000
    N3380    N        0.55502    0.65409    0.78852    1.000
    Si3381   Si       0.52317    0.70943    0.83733    1.000
    Si3382   Si       0.56929    0.68642    0.89582    1.000
    N3383    N        0.54291    0.60157    0.91566    1.000
    Si3384   Si       0.55388    0.51236    0.93695    1.000
    Si3385   Si       0.52422    0.53239    0.99104    1.000
    Si3386   Si       0.56933    0.69591    0.96372    1.000
    N3387    N        0.51891    0.54135    0.94681    1.000
    N3388    N        0.54917    0.73147    0.97743    1.000
    Si3389   Si       0.54050    0.74824    0.93848    1.000
    N3390    N        0.54376    0.67832    0.93097    1.000
    N3391    N        0.56893    0.72965    0.90840    1.000
    Si3392   Si       0.55720    0.79834    0.06515    1.000
    Si3393   Si       0.54282    0.85730    0.01756    1.000
    N3394    N        0.56827    0.83407    0.04187    1.000
    N3395    N        0.54833    0.76570    0.03979    1.000
    N3396    N        0.53713    0.86985    0.11910    1.000
    N3397    N        0.54229    0.94307    0.03384    1.000
    Si3398   Si       0.56209    0.93211    0.07219    1.000
    N3399    N        0.53249    0.93557    0.10280    1.000
    Si3400   Si       0.54154    0.98541    0.03294    1.000
    Si3401   Si       0.52948    0.97804    0.10626    1.000
    N3402    N        0.52748    0.00350    0.07021    1.000
    Si3403   Si       0.57919    0.76077    0.12217    1.000
    Si3404   Si       0.56622    0.86115    0.15152    1.000
    N3405    N        0.52625    0.78217    0.20774    1.000
    N3406    N        0.55407    0.82111    0.16071    1.000
    Si3407   Si       0.52306    0.87278    0.21582    1.000
    Si3408   Si       0.54232    0.80577    0.24277    1.000
    N3409    N        0.55891    0.88363    0.19001    1.000
    Si3410   Si       0.55145    0.97799    0.20344    1.000
    N3411    N        0.56092    0.99801    0.12891    1.000
    Si3412   Si       0.53104    0.78793    0.31862    1.000
    N3413    N        0.55444    0.82303    0.31944    1.000
    N3414    N        0.53064    0.84744    0.24989    1.000
    Si3415   Si       0.52414    0.84791    0.29446    1.000
    N3416    N        0.52133    0.78776    0.27677    1.000
    N3417    N        0.54300    0.88522    0.30719    1.000
    Si3418   Si       0.53240    0.93816    0.25893    1.000
    Si3419   Si       0.52343    0.91501    0.32956    1.000
    N3420    N        0.57371    0.91996    0.25549    1.000
    Si3421   Si       0.54594    0.81160    0.41264    1.000
    N3422    N        0.56327    0.77247    0.40608    1.000
    N3423    N        0.56529    0.83114    0.44843    1.000
    N3424    N        0.56616    0.84326    0.38674    1.000
    Si3425   Si       0.57464    0.93016    0.39739    1.000
    N3426    N        0.53827    0.92992    0.37028    1.000
    Si3427   Si       0.55542    0.91463    0.47196    1.000
    N3428    N        0.56349    0.90111    0.43111    1.000
    N3429    N        0.55317    0.01456    0.46424    1.000
    N3430    N        0.54785    0.97767    0.24797    1.000
    N3431    N        0.54636    0.85622    0.59888    1.000
    Si3432   Si       0.52651    0.82032    0.61463    1.000
    N3433    N        0.52309    0.79021    0.58561    1.000
    N3434    N        0.55625    0.88712    0.50595    1.000
    N3435    N        0.55533    0.98706    0.59792    1.000
    Si3436   Si       0.54089    0.96510    0.56354    1.000
    N3437    N        0.55892    0.99691    0.53846    1.000
    N3438    N        0.55493    0.92309    0.57362    1.000
    Si3439   Si       0.52234    0.89124    0.58388    1.000
    N3440    N        0.53788    0.80079    0.65285    1.000
    Si3441   Si       0.53632    0.82725    0.68636    1.000
    N3442    N        0.56879    0.77341    0.74452    1.000
    N3443    N        0.57885    0.83235    0.69499    1.000
    N3444    N        0.55182    0.94496    0.64553    1.000
    Si3445   Si       0.51977    0.90447    0.70462    1.000
    Si3446   Si       0.56922    0.95475    0.68274    1.000
    N3447    N        0.55898    0.92303    0.71135    1.000
    N3448    N        0.56090    0.98992    0.70479    1.000
    Si3449   Si       0.57457    0.98878    0.74515    1.000
    N3450    N        0.51974    0.86780    0.68013    1.000
    Si3451   Si       0.54662    0.86964    0.79057    1.000
    N3452    N        0.55614    0.79547    0.83665    1.000
    N3453    N        0.55312    0.84121    0.75863    1.000
    N3454    N        0.57209    0.86419    0.82651    1.000
    Si3455   Si       0.53570    0.79954    0.75117    1.000
    Si3456   Si       0.56398    0.96122    0.86183    1.000
    N3457    N        0.54622    0.99076    0.77541    1.000
    N3458    N        0.52448    0.95450    0.84606    1.000
    N3459    N        0.56891    0.90820    0.78414    1.000
    N3460    N        0.56934    0.00509    0.84836    1.000
    N3461    N        0.52481    0.82967    0.99091    1.000
    N3462    N        0.53245    0.79027    0.93548    1.000
    N3463    N        0.55740    0.84199    0.89039    1.000
    Si3464   Si       0.56491    0.81510    0.92435    1.000
    Si3465   Si       0.52835    0.86967    0.90597    1.000
    N3466    N        0.56303    0.89049    0.99601    1.000
    N3467    N        0.53557    0.95468    0.96617    1.000
    N3468    N        0.56521    0.96258    0.90517    1.000
    Si3469   Si       0.53590    0.93836    0.92524    1.000
    N3470    N        0.54948    0.89850    0.93001    1.000
    Si3471   Si       0.51978    0.99540    0.96411    1.000
    Si3472   Si       0.53447    0.92411    0.99657    1.000
    N3473    N        0.60892    0.09483    0.09302    1.000
    Si3474   Si       0.59431    0.08245    0.05340    1.000
    N3475    N        0.61975    0.02765    0.10649    1.000
    N3476    N        0.59320    0.11583    0.02581    1.000
    N3477    N        0.62753    0.05865    0.04123    1.000
    Si3478   Si       0.62106    0.13461    0.99972    1.000
    Si3479   Si       0.61855    0.13667    0.09255    1.000
    Si3480   Si       0.60432    0.23793    0.07730    1.000
    N3481    N        0.59781    0.17509    0.00824    1.000
    N3482    N        0.62920    0.20344    0.06421    1.000
    Si3483   Si       0.63817    0.18982    0.02559    1.000
    Si3484   Si       0.60298    0.23491    0.21936    1.000
    Si3485   Si       0.59645    0.16481    0.16775    1.000
    Si3486   Si       0.61875    0.06640    0.12498    1.000
    Si3487   Si       0.59330    0.03426    0.22101    1.000
    N3488    N        0.59702    0.12444    0.18207    1.000
    N3489    N        0.62344    0.06723    0.21721    1.000
    N3490    N        0.58345    0.06523    0.15179    1.000
    Si3491   Si       0.63201    0.10047    0.18801    1.000
    N3492    N        0.59612    0.20242    0.18934    1.000
    N3493    N        0.61762    0.16575    0.12757    1.000
    N3494    N        0.62162    0.00571    0.20828    1.000
    N3495    N        0.59406    0.11917    0.25339    1.000
    Si3496   Si       0.63536    0.11243    0.25085    1.000
    N3497    N        0.59436    0.13402    0.31711    1.000
    Si3498   Si       0.62338    0.15077    0.48393    1.000
    Si3499   Si       0.61526    0.20838    0.34689    1.000
    N3500    N        0.61818    0.24221    0.31949    1.000
    N3501    N        0.62161    0.21408    0.25414    1.000
    Si3502   Si       0.57935    0.15200    0.35423    1.000
    N3503    N        0.59245    0.06741    0.45096    1.000
    N3504    N        0.62760    0.02921    0.40013    1.000
    Si3505   Si       0.58867    0.08652    0.48996    1.000
    Si3506   Si       0.62883    0.04156    0.44217    1.000
    N3507    N        0.58297    0.13027    0.48265    1.000
    Si3508   Si       0.60716    0.18624    0.41347    1.000
    N3509    N        0.61111    0.15336    0.38342    1.000
    N3510    N        0.63166    0.17602    0.44717    1.000
    N3511    N        0.61413    0.21972    0.38864    1.000
    Si3512   Si       0.63582    0.12392    0.31036    1.000
    Si3513   Si       0.62169    0.06133    0.60913    1.000
    N3514    N        0.62498    0.08768    0.51138    1.000
    N3515    N        0.62278    0.01950    0.54506    1.000
    N3516    N        0.58466    0.04936    0.58854    1.000
    N3517    N        0.63232    0.22974    0.55725    1.000
    Si3518   Si       0.59659    0.25042    0.54657    1.000
    N3519    N        0.58398    0.24998    0.60122    1.000
    N3520    N        0.63283    0.17533    0.51688    1.000
    N3521    N        0.61346    0.25309    0.50258    1.000
    Si3522   Si       0.64066    0.21808    0.51418    1.000
    Si3523   Si       0.60825    0.05113    0.71831    1.000
    N3524    N        0.61259    0.09367    0.63575    1.000
    N3525    N        0.58647    0.12471    0.69446    1.000
    N3526    N        0.59361    0.08057    0.74598    1.000
    Si3527   Si       0.57717    0.09478    0.66267    1.000
    Si3528   Si       0.61606    0.23431    0.62793    1.000
    N3529    N        0.61846    0.18770    0.70940    1.000
    Si3530   Si       0.58230    0.20935    0.69614    1.000
    N3531    N        0.59575    0.20685    0.65364    1.000
    Si3532   Si       0.62602    0.14625    0.69976    1.000
    Si3533   Si       0.61997    0.13615    0.62692    1.000
    Si3534   Si       0.59700    0.05141    0.78010    1.000
    N3535    N        0.59099    0.07921    0.86030    1.000
    Si3536   Si       0.59693    0.03717    0.86397    1.000
    Si3537   Si       0.62848    0.11149    0.76535    1.000
    N3538    N        0.63273    0.07642    0.78979    1.000
    N3539    N        0.60667    0.01975    0.75006    1.000
    N3540    N        0.59521    0.14025    0.76328    1.000
    N3541    N        0.61864    0.21380    0.78625    1.000
    N3542    N        0.60922    0.15283    0.83186    1.000
    Si3543   Si       0.60076    0.17412    0.87104    1.000
    Si3544   Si       0.62151    0.10224    0.87963    1.000
    N3545    N        0.61587    0.04206    0.97267    1.000
    Si3546   Si       0.60925    0.06007    0.93357    1.000
    N3547    N        0.60145    0.02673    0.90528    1.000
    Si3548   Si       0.58866    0.00975    0.97692    1.000
    N3549    N        0.57930    0.25600    0.89405    1.000
    N3550    N        0.60929    0.13437    0.95962    1.000
    Si3551   Si       0.61520    0.23562    0.91132    1.000
    N3552    N        0.61627    0.20678    0.94580    1.000
    N3553    N        0.60360    0.13906    0.89477    1.000
    N3554    N        0.62539    0.20990    0.87722    1.000
    Si3555   Si       0.58371    0.19363    0.97145    1.000
    N3556    N        0.63735    0.08864    0.91787    1.000
    Si3557   Si       0.60140    0.30945    0.05846    1.000
    N3558    N        0.60779    0.30744    0.10214    1.000
    N3559    N        0.59686    0.26800    0.04860    1.000
    N3560    N        0.60947    0.42112    0.07496    1.000
    Si3561   Si       0.61892    0.43721    0.03262    1.000
    N3562    N        0.59094    0.45175    0.00355    1.000
    Si3563   Si       0.59816    0.42878    0.17617    1.000
    N3564    N        0.62410    0.27240    0.21326    1.000
    Si3565   Si       0.61646    0.30488    0.18560    1.000
    N3566    N        0.61721    0.34448    0.20369    1.000
    Si3567   Si       0.58535    0.37126    0.21718    1.000
    N3568    N        0.58375    0.48033    0.24548    1.000
    N3569    N        0.59534    0.41332    0.21668    1.000
    Si3570   Si       0.58517    0.48435    0.13611    1.000
    N3571    N        0.58172    0.46881    0.17692    1.000
    N3572    N        0.62976    0.47510    0.12890    1.000
    Si3573   Si       0.57421    0.42002    0.10078    1.000
    Si3574   Si       0.61166    0.28470    0.33220    1.000
    Si3575   Si       0.60257    0.34598    0.28689    1.000
    N3576    N        0.58790    0.30622    0.30167    1.000
    N3577    N        0.60402    0.37348    0.31905    1.000
    N3578    N        0.59687    0.28600    0.37274    1.000
    Si3579   Si       0.60269    0.44028    0.25084    1.000
    Si3580   Si       0.59092    0.44554    0.32806    1.000
    N3581    N        0.63333    0.43875    0.33468    1.000
    N3582    N        0.57683    0.48579    0.32534    1.000
    Si3583   Si       0.61930    0.26140    0.40310    1.000
    N3584    N        0.62018    0.28058    0.44372    1.000
    Si3585   Si       0.58964    0.27601    0.47446    1.000
    N3586    N        0.60759    0.34359    0.43586    1.000
    Si3587   Si       0.60089    0.37056    0.40300    1.000
    N3588    N        0.61515    0.43043    0.48147    1.000
    N3589    N        0.60690    0.46331    0.39059    1.000
    N3590    N        0.63609    0.38453    0.38105    1.000
    N3591    N        0.60501    0.49830    0.45896    1.000
    Si3592   Si       0.59043    0.49250    0.41827    1.000
    Si3593   Si       0.58117    0.41323    0.46175    1.000
    Si3594   Si       0.60917    0.47242    0.49429    1.000
    Si3595   Si       0.63610    0.39423    0.34029    1.000
    N3596    N        0.57641    0.36389    0.25869    1.000
    N3597    N        0.57997    0.42977    0.28774    1.000
    N3598    N        0.63704    0.50921    0.35625    1.000
    N3599    N        0.62422    0.31003    0.59528    1.000
    N3600    N        0.62821    0.36250    0.53699    1.000
    Si3601   Si       0.62089    0.32143    0.55248    1.000
    N3602    N        0.58486    0.29210    0.55157    1.000
    Si3603   Si       0.58964    0.38048    0.52636    1.000
    N3604    N        0.63435    0.41539    0.63601    1.000
    Si3605   Si       0.59828    0.45137    0.56553    1.000
    N3606    N        0.58720    0.46405    0.60667    1.000
    N3607    N        0.58476    0.47598    0.53126    1.000
    Si3608   Si       0.60542    0.50247    0.61949    1.000
    N3609    N        0.58850    0.32393    0.65846    1.000
    Si3610   Si       0.61473    0.34804    0.68770    1.000
    N3611    N        0.62447    0.30809    0.71147    1.000
    Si3612   Si       0.60236    0.28716    0.68176    1.000
    N3613    N        0.62833    0.26929    0.65235    1.000
    N3614    N        0.62409    0.38758    0.70408    1.000
    Si3615   Si       0.59339    0.42754    0.62809    1.000
    Si3616   Si       0.58759    0.39255    0.72949    1.000
    N3617    N        0.62389    0.28774    0.78869    1.000
    Si3618   Si       0.58512    0.33690    0.84540    1.000
    N3619    N        0.61241    0.30954    0.86456    1.000
    Si3620   Si       0.58047    0.28930    0.78554    1.000
    N3621    N        0.59459    0.37833    0.84164    1.000
    Si3622   Si       0.61461    0.39337    0.80500    1.000
    Si3623   Si       0.61531    0.46269    0.84456    1.000
    Si3624   Si       0.59192    0.48584    0.75544    1.000
    N3625    N        0.58464    0.39597    0.77427    1.000
    N3626    N        0.62797    0.43370    0.81392    1.000
    N3627    N        0.63201    0.46902    0.75667    1.000
    N3628    N        0.62853    0.49614    0.82202    1.000
    N3629    N        0.61468    0.36586    0.97193    1.000
    Si3630   Si       0.59344    0.36229    0.93264    1.000
    N3631    N        0.62637    0.36888    0.90351    1.000
    Si3632   Si       0.58072    0.29807    0.89307    1.000
    N3633    N        0.58851    0.30458    0.99628    1.000
    Si3634   Si       0.62637    0.32844    0.99477    1.000
    N3635    N        0.58387    0.32042    0.93152    1.000
    N3636    N        0.63139    0.43694    0.94973    1.000
    N3637    N        0.61746    0.43580    0.87980    1.000
    N3638    N        0.62045    0.50410    0.96888    1.000
    Si3639   Si       0.60225    0.46448    0.96445    1.000
    Si3640   Si       0.60204    0.39640    0.88026    1.000
    N3641    N        0.60641    0.60445    0.03912    1.000
    N3642    N        0.61775    0.53450    0.03510    1.000
    Si3643   Si       0.58520    0.56360    0.03915    1.000
    Si3644   Si       0.58818    0.61867    0.07720    1.000
    Si3645   Si       0.58747    0.68554    0.10473    1.000
    N3646    N        0.59842    0.72822    0.10389    1.000
    N3647    N        0.62894    0.67882    0.11440    1.000
    N3648    N        0.58177    0.66067    0.06985    1.000
    N3649    N        0.63021    0.70395    0.02997    1.000
    Si3650   Si       0.62107    0.67843    0.99602    1.000
    N3651    N        0.58727    0.62878    0.12136    1.000
    N3652    N        0.62492    0.57524    0.17474    1.000
    N3653    N        0.61524    0.61842    0.22716    1.000
    Si3654   Si       0.58565    0.55793    0.17109    1.000
    N3655    N        0.59310    0.52709    0.13971    1.000
    Si3656   Si       0.63690    0.51292    0.15107    1.000
    Si3657   Si       0.63622    0.58400    0.21389    1.000
    N3658    N        0.62440    0.68651    0.22642    1.000
    Si3659   Si       0.61299    0.65264    0.20233    1.000
    Si3660   Si       0.62918    0.63972    0.12891    1.000
    N3661    N        0.57858    0.66949    0.99817    1.000
    N3662    N        0.62178    0.55688    0.24534    1.000
    Si3663   Si       0.60987    0.58959    0.33654    1.000
    Si3664   Si       0.60150    0.61743    0.26782    1.000
    Si3665   Si       0.59386    0.51746    0.35017    1.000
    N3666    N        0.63087    0.60873    0.30076    1.000
    N3667    N        0.58883    0.55211    0.32664    1.000
    Si3668   Si       0.63713    0.57951    0.40738    1.000
    Si3669   Si       0.57847    0.55472    0.24558    1.000
    N3670    N        0.58500    0.65578    0.47881    1.000
    N3671    N        0.60756    0.71931    0.29059    1.000
    Si3672   Si       0.59448    0.69731    0.25538    1.000
    N3673    N        0.59993    0.71988    0.36381    1.000
    N3674    N        0.58404    0.65941    0.27481    1.000
    Si3675   Si       0.57757    0.69502    0.39349    1.000
    N3676    N        0.60154    0.58793    0.38204    1.000
    Si3677   Si       0.62560    0.53596    0.46947    1.000
    N3678    N        0.60982    0.56327    0.43904    1.000
    N3679    N        0.58150    0.52540    0.39191    1.000
    N3680    N        0.59440    0.65474    0.39524    1.000
    N3681    N        0.58407    0.71247    0.43315    1.000
    Si3682   Si       0.60487    0.68756    0.45949    1.000
    N3683    N        0.60612    0.53035    0.58391    1.000
    N3684    N        0.61830    0.54508    0.51256    1.000
    Si3685   Si       0.63657    0.54172    0.55412    1.000
    Si3686   Si       0.60443    0.65931    0.58599    1.000
    N3687    N        0.58701    0.74059    0.61194    1.000
    N3688    N        0.61445    0.70323    0.50289    1.000
    N3689    N        0.62917    0.65321    0.54932    1.000
    Si3690   Si       0.58372    0.73846    0.50732    1.000
    N3691    N        0.58107    0.75512    0.54653    1.000
    Si3692   Si       0.62182    0.75908    0.67655    1.000
    N3693    N        0.62785    0.66523    0.62080    1.000
    Si3694   Si       0.60284    0.59937    0.70201    1.000
    N3695    N        0.59058    0.61851    0.66259    1.000
    Si3696   Si       0.59195    0.52269    0.69636    1.000
    N3697    N        0.58572    0.73710    0.68293    1.000
    N3698    N        0.59380    0.62883    0.73610    1.000
    Si3699   Si       0.60270    0.65966    0.65561    1.000
    N3700    N        0.63234    0.51995    0.70957    1.000
    Si3701   Si       0.60630    0.67036    0.72691    1.000
    N3702    N        0.62625    0.67477    0.68859    1.000
    Si3703   Si       0.57856    0.56490    0.51178    1.000
    Si3704   Si       0.57719    0.67774    0.52036    1.000
    N3705    N        0.59265    0.52662    0.77287    1.000
    Si3706   Si       0.58907    0.58691    0.82941    1.000
    N3707    N        0.62775    0.56857    0.82112    1.000
    Si3708   Si       0.62803    0.53426    0.79530    1.000
    N3709    N        0.59608    0.62701    0.84153    1.000
    N3710    N        0.60999    0.68708    0.81429    1.000
    Si3711   Si       0.59596    0.73043    0.81541    1.000
    N3712    N        0.62083    0.75062    0.78563    1.000
    N3713    N        0.61165    0.75145    0.85061    1.000
    N3714    N        0.61109    0.60376    0.91155    1.000
    Si3715   Si       0.61729    0.51437    0.92552    1.000
    N3716    N        0.58501    0.54359    0.92703    1.000
    N3717    N        0.63217    0.57458    0.98320    1.000
    Si3718   Si       0.63583    0.53282    0.99416    1.000
    Si3719   Si       0.60078    0.75391    0.89436    1.000
    N3720    N        0.61320    0.69915    0.95858    1.000
    Si3721   Si       0.61958    0.63246    0.87861    1.000
    N3722    N        0.61033    0.67123    0.89456    1.000
    Si3723   Si       0.57627    0.66315    0.82622    1.000
    Si3724   Si       0.57654    0.57920    0.90379    1.000
    Si3725   Si       0.61062    0.83740    0.03681    1.000
    N3726    N        0.62766    0.86767    0.01151    1.000
    N3727    N        0.58917    0.79181    0.09441    1.000
    N3728    N        0.62963    0.84378    0.07774    1.000
    Si3729   Si       0.63334    0.79564    0.08139    1.000
    N3730    N        0.62916    0.79843    0.03397    1.000
    Si3731   Si       0.61696    0.88076    0.09457    1.000
    N3732    N        0.62456    0.96573    0.14033    1.000
    N3733    N        0.58971    0.96581    0.07802    1.000
    Si3734   Si       0.60863    0.97030    0.03823    1.000
    N3735    N        0.61167    0.93810    0.01191    1.000
    Si3736   Si       0.59788    0.89931    0.02141    1.000
    Si3737   Si       0.60081    0.98913    0.11242    1.000
    N3738    N        0.59118    0.90088    0.06616    1.000
    N3739    N        0.58018    0.99650    0.01776    1.000
    N3740    N        0.61667    0.83390    0.18565    1.000
    N3741    N        0.59897    0.76933    0.16001    1.000
    Si3742   Si       0.58633    0.80253    0.18462    1.000
    Si3743   Si       0.61384    0.84279    0.23195    1.000
    N3744    N        0.60304    0.87802    0.13476    1.000
    N3745    N        0.58346    0.80890    0.22934    1.000
    Si3746   Si       0.63444    0.87208    0.16736    1.000
    N3747    N        0.58397    0.95145    0.19498    1.000
    Si3748   Si       0.58351    0.91056    0.21170    1.000
    N3749    N        0.62295    0.89289    0.20832    1.000
    Si3750   Si       0.62419    0.97109    0.18496    1.000
    N3751    N        0.60800    0.79405    0.35635    1.000
    N3752    N        0.60803    0.85989    0.27399    1.000
    N3753    N        0.61921    0.85880    0.34478    1.000
    Si3754   Si       0.58566    0.83175    0.35013    1.000
    Si3755   Si       0.58192    0.76271    0.36899    1.000
    Si3756   Si       0.62038    0.94087    0.34351    1.000
    N3757    N        0.60877    0.98073    0.35656    1.000
    N3758    N        0.59911    0.98674    0.28793    1.000
    N3759    N        0.59916    0.92088    0.31116    1.000
    Si3760   Si       0.60395    0.94585    0.27500    1.000
    Si3761   Si       0.57970    0.88954    0.28635    1.000
    N3762    N        0.63029    0.81783    0.46794    1.000
    N3763    N        0.62357    0.86650    0.42089    1.000
    Si3764   Si       0.58832    0.80709    0.47616    1.000
    Si3765   Si       0.58074    0.86307    0.42104    1.000
    N3766    N        0.61898    0.88133    0.49271    1.000
    N3767    N        0.62062    0.00359    0.46384    1.000
    N3768    N        0.58398    0.94574    0.47939    1.000
    N3769    N        0.58001    0.96923    0.41542    1.000
    Si3770   Si       0.58278    0.98416    0.45748    1.000
    Si3771   Si       0.59310    0.00265    0.39185    1.000
    N3772    N        0.61165    0.91694    0.37899    1.000
    Si3773   Si       0.63801    0.87954    0.38164    1.000
    N3774    N        0.57782    0.76583    0.47511    1.000
    Si3775   Si       0.60577    0.01062    0.32504    1.000
    Si3776   Si       0.61146    0.77859    0.61147    1.000
    N3777    N        0.60166    0.87463    0.56256    1.000
    Si3778   Si       0.58720    0.85050    0.59699    1.000
    Si3779   Si       0.58991    0.86350    0.52099    1.000
    N3780    N        0.59848    0.81023    0.58707    1.000
    Si3781   Si       0.59829    0.79471    0.54612    1.000
    N3782    N        0.58186    0.82141    0.51695    1.000
    N3783    N        0.61118    0.92195    0.61227    1.000
    N3784    N        0.61393    0.98397    0.59586    1.000
    Si3785   Si       0.59771    0.91625    0.57027    1.000
    N3786    N        0.62275    0.94065    0.54161    1.000
    Si3787   Si       0.62023    0.92428    0.50000    1.000
    Si3788   Si       0.58636    0.00892    0.57109    1.000
    Si3789   Si       0.61340    0.83413    0.66844    1.000
    N3790    N        0.61057    0.85939    0.63380    1.000
    N3791    N        0.61409    0.79378    0.65257    1.000
    Si3792   Si       0.58864    0.84510    0.73516    1.000
    N3793    N        0.60741    0.88476    0.73430    1.000
    N3794    N        0.60661    0.96719    0.66438    1.000
    Si3795   Si       0.58665    0.96014    0.62292    1.000
    Si3796   Si       0.58439    0.91852    0.74628    1.000
    N3797    N        0.63733    0.76404    0.71538    1.000
    N3798    N        0.62123    0.82057    0.84880    1.000
    N3799    N        0.61830    0.81996    0.75352    1.000
    Si3800   Si       0.61291    0.77738    0.75064    1.000
    Si3801   Si       0.57861    0.82896    0.85289    1.000
    N3802    N        0.59442    0.93891    0.84377    1.000
    Si3803   Si       0.59235    0.90244    0.82122    1.000
    N3804    N        0.60500    0.95778    0.75277    1.000
    N3805    N        0.63144    0.89099    0.83943    1.000
    Si3806   Si       0.62445    0.81910    0.93742    1.000
    N3807    N        0.60043    0.79235    0.91323    1.000
    N3808    N        0.58861    0.84065    0.95055    1.000
    Si3809   Si       0.62917    0.94445    0.97343    1.000
    N3810    N        0.61671    0.90730    0.95078    1.000
    N3811    N        0.60858    0.97775    0.95568    1.000
    Si3812   Si       0.58115    0.88317    0.95576    1.000
    Si3813   Si       0.60258    0.98445    0.91382    1.000
    N3814    N        0.63355    0.97189    0.88472    1.000
    Si3815   Si       0.63772    0.98735    0.75142    1.000
    Si3816   Si       0.68576    0.12442    0.01194    1.000
    N3817    N        0.68625    0.02885    0.07654    1.000
    Si3818   Si       0.64393    0.03166    0.06830    1.000
    N3819    N        0.68339    0.04167    0.00451    1.000
    Si3820   Si       0.64473    0.06079    0.00094    1.000
    N3821    N        0.69092    0.25403    0.20537    1.000
    N3822    N        0.66287    0.13582    0.09294    1.000
    Si3823   Si       0.66562    0.21895    0.08317    1.000
    N3824    N        0.65486    0.15163    0.02311    1.000
    N3825    N        0.68520    0.19537    0.11464    1.000
    N3826    N        0.64046    0.24968    0.10117    1.000
    N3827    N        0.65146    0.08272    0.15170    1.000
    N3828    N        0.65811    0.11912    0.21525    1.000
    Si3829   Si       0.65446    0.03324    0.22269    1.000
    N3830    N        0.69011    0.02795    0.19901    1.000
    Si3831   Si       0.69061    0.10241    0.14765    1.000
    N3832    N        0.67848    0.18466    0.22024    1.000
    Si3833   Si       0.66082    0.16194    0.12744    1.000
    Si3834   Si       0.68823    0.14719    0.20324    1.000
    N3835    N        0.68049    0.14327    0.16035    1.000
    N3836    N        0.69575    0.21871    0.05267    1.000
    N3837    N        0.65644    0.11504    0.34640    1.000
    Si3838   Si       0.66076    0.05033    0.29795    1.000
    N3839    N        0.66691    0.02773    0.26348    1.000
    N3840    N        0.64039    0.08659    0.28654    1.000
    N3841    N        0.64014    0.03454    0.33309    1.000
    Si3842   Si       0.69280    0.08881    0.35119    1.000
    N3843    N        0.68053    0.15384    0.40138    1.000
    Si3844   Si       0.67216    0.16138    0.44345    1.000
    N3845    N        0.65168    0.14786    0.27545    1.000
    Si3846   Si       0.65760    0.18552    0.25766    1.000
    N3847    N        0.65089    0.18347    0.34016    1.000
    N3848    N        0.67633    0.21116    0.28746    1.000
    Si3849   Si       0.68980    0.19545    0.32592    1.000
    Si3850   Si       0.64041    0.23612    0.28428    1.000
    Si3851   Si       0.65182    0.15041    0.37137    1.000
    Si3852   Si       0.66122    0.02941    0.37314    1.000
    Si3853   Si       0.66273    0.08904    0.48722    1.000
    N3854    N        0.66262    0.06496    0.44977    1.000
    N3855    N        0.66162    0.12910    0.47258    1.000
    N3856    N        0.68698    0.06376    0.38623    1.000
    Si3857   Si       0.66915    0.11349    0.58564    1.000
    N3858    N        0.67847    0.05792    0.51616    1.000
    N3859    N        0.64866    0.07563    0.57873    1.000
    N3860    N        0.68165    0.12666    0.54450    1.000
    Si3861   Si       0.64063    0.05922    0.53877    1.000
    Si3862   Si       0.66993    0.22773    0.57794    1.000
    Si3863   Si       0.65674    0.16269    0.55175    1.000
    N3864    N        0.68788    0.19313    0.56005    1.000
    N3865    N        0.65544    0.22099    0.61814    1.000
    N3866    N        0.67499    0.24066    0.49721    1.000
    N3867    N        0.63796    0.14543    0.58745    1.000
    N3868    N        0.64766    0.04930    0.70020    1.000
    Si3869   Si       0.66222    0.02265    0.67056    1.000
    Si3870   Si       0.67244    0.08356    0.71694    1.000
    N3871    N        0.64877    0.11979    0.72637    1.000
    N3872    N        0.64356    0.03256    0.63256    1.000
    N3873    N        0.69476    0.06974    0.74999    1.000
    Si3874   Si       0.68745    0.13357    0.65953    1.000
    N3875    N        0.68243    0.19223    0.74373    1.000
    Si3876   Si       0.68155    0.24281    0.64686    1.000
    N3877    N        0.64561    0.14634    0.66118    1.000
    N3878    N        0.65156    0.25116    0.73312    1.000
    N3879    N        0.68185    0.22214    0.68485    1.000
    Si3880   Si       0.65651    0.21163    0.71623    1.000
    N3881    N        0.69631    0.12044    0.61785    1.000
    N3882    N        0.69065    0.09545    0.68068    1.000
    Si3883   Si       0.65552    0.06598    0.82423    1.000
    N3884    N        0.65240    0.10168    0.84869    1.000
    N3885    N        0.63443    0.03002    0.84468    1.000
    N3886    N        0.69412    0.04915    0.81382    1.000
    N3887    N        0.65983    0.21362    0.99617    1.000
    N3888    N        0.66066    0.13607    0.78837    1.000
    Si3889   Si       0.69040    0.15390    0.76165    1.000
    Si3890   Si       0.65146    0.14040    0.83073    1.000
    N3891    N        0.68019    0.24302    0.79657    1.000
    N3892    N        0.67527    0.17072    0.85187    1.000
    Si3893   Si       0.64185    0.24855    0.77816    1.000
    Si3894   Si       0.64957    0.11869    0.94735    1.000
    N3895    N        0.65387    0.10211    0.98728    1.000
    N3896    N        0.67139    0.15689    0.95183    1.000
    Si3897   Si       0.67135    0.21504    0.87340    1.000
    Si3898   Si       0.65939    0.19998    0.95317    1.000
    N3899    N        0.67887    0.21189    0.91595    1.000
    Si3900   Si       0.67040    0.33895    0.06302    1.000
    N3901    N        0.67287    0.31900    0.10217    1.000
    Si3902   Si       0.64407    0.29016    0.11735    1.000
    N3903    N        0.67848    0.38125    0.06690    1.000
    N3904    N        0.63553    0.32894    0.03952    1.000
    N3905    N        0.67693    0.44129    0.10452    1.000
    N3906    N        0.64711    0.41131    0.01150    1.000
    Si3907   Si       0.68417    0.40473    0.02973    1.000
    N3908    N        0.63878    0.47043    0.05347    1.000
    Si3909   Si       0.68648    0.50019    0.21305    1.000
    Si3910   Si       0.66564    0.45577    0.15288    1.000
    N3911    N        0.65091    0.29584    0.15886    1.000
    Si3912   Si       0.66387    0.27777    0.23090    1.000
    Si3913   Si       0.65667    0.34885    0.22614    1.000
    N3914    N        0.68334    0.31503    0.22248    1.000
    Si3915   Si       0.68892    0.27897    0.16907    1.000
    N3916    N        0.68858    0.37566    0.13720    1.000
    N3917    N        0.68186    0.38311    0.21215    1.000
    Si3918   Si       0.67870    0.39901    0.17320    1.000
    N3919    N        0.66128    0.49028    0.18001    1.000
    N3920    N        0.64073    0.42070    0.16483    1.000
    Si3921   Si       0.63446    0.45142    0.09292    1.000
    N3922    N        0.65981    0.27554    0.27346    1.000
    Si3923   Si       0.66290    0.31430    0.29317    1.000
    N3924    N        0.64818    0.30850    0.33328    1.000
    N3925    N        0.64098    0.33991    0.26538    1.000
    Si3926   Si       0.67097    0.30647    0.36974    1.000
    N3927    N        0.67042    0.39265    0.31405    1.000
    Si3928   Si       0.66289    0.43344    0.30190    1.000
    Si3929   Si       0.64337    0.46825    0.36589    1.000
    N3930    N        0.64378    0.43609    0.26429    1.000
    N3931    N        0.69181    0.46543    0.30996    1.000
    Si3932   Si       0.65509    0.41789    0.47385    1.000
    N3933    N        0.66731    0.33284    0.40427    1.000
    N3934    N        0.67127    0.31178    0.47002    1.000
    N3935    N        0.66078    0.26929    0.39055    1.000
    Si3936   Si       0.66963    0.37679    0.40970    1.000
    Si3937   Si       0.69197    0.34872    0.47500    1.000
    N3938    N        0.66544    0.37930    0.45456    1.000
    Si3939   Si       0.64276    0.31760    0.43699    1.000
    Si3940   Si       0.65269    0.27667    0.49142    1.000
    Si3941   Si       0.67727    0.48442    0.47555    1.000
    N3942    N        0.68296    0.46644    0.37762    1.000
    N3943    N        0.66946    0.45002    0.44820    1.000
    N3944    N        0.65145    0.29939    0.53093    1.000
    Si3945   Si       0.69312    0.31302    0.53433    1.000
    Si3946   Si       0.66900    0.38340    0.53962    1.000
    N3947    N        0.67658    0.38732    0.58322    1.000
    N3948    N        0.67835    0.41444    0.51142    1.000
    Si3949   Si       0.66685    0.47374    0.54661    1.000
    Si3950   Si       0.66105    0.42393    0.60197    1.000
    N3951    N        0.64868    0.48036    0.50745    1.000
    N3952    N        0.64165    0.44452    0.56980    1.000
    N3953    N        0.69283    0.44667    0.62116    1.000
    N3954    N        0.68578    0.28337    0.63080    1.000
    N3955    N        0.64977    0.33821    0.65862    1.000
    Si3956   Si       0.66218    0.29430    0.72506    1.000
    Si3957   Si       0.64746    0.30293    0.63137    1.000
    Si3958   Si       0.68888    0.34882    0.67320    1.000
    N3959    N        0.64583    0.49717    0.63319    1.000
    N3960    N        0.65754    0.45395    0.68783    1.000
    Si3961   Si       0.67504    0.47386    0.65240    1.000
    Si3962   Si       0.64896    0.41260    0.67726    1.000
    Si3963   Si       0.65155    0.48259    0.72122    1.000
    N3964    N        0.68815    0.39100    0.68338    1.000
    N3965    N        0.69116    0.49227    0.73582    1.000
    N3966    N        0.69644    0.35451    0.51979    1.000
    N3967    N        0.67752    0.31680    0.83508    1.000
    N3968    N        0.67729    0.31548    0.76045    1.000
    Si3969   Si       0.65384    0.31930    0.79774    1.000
    N3970    N        0.64518    0.36317    0.79346    1.000
    Si3971   Si       0.68440    0.37924    0.77844    1.000
    Si3972   Si       0.65639    0.30192    0.86987    1.000
    N3973    N        0.68667    0.42462    0.78106    1.000
    Si3974   Si       0.65835    0.45720    0.79157    1.000
    N3975    N        0.69078    0.48761    0.80217    1.000
    N3976    N        0.66420    0.31755    0.97469    1.000
    Si3977   Si       0.66846    0.36148    0.91142    1.000
    N3978    N        0.67489    0.31824    0.90588    1.000
    Si3979   Si       0.67395    0.29185    0.93990    1.000
    N3980    N        0.67525    0.38352    0.94918    1.000
    N3981    N        0.63771    0.26827    0.93042    1.000
    Si3982   Si       0.64575    0.44870    0.90996    1.000
    N3983    N        0.69276    0.44108    0.91145    1.000
    Si3984   Si       0.64210    0.40005    0.97094    1.000
    N3985    N        0.64573    0.49059    0.90224    1.000
    N3986    N        0.66913    0.26061    0.86367    1.000
    N3987    N        0.67729    0.59842    0.03698    1.000
    N3988    N        0.65336    0.60972    0.11161    1.000
    N3989    N        0.67215    0.51627    0.00753    1.000
    Si3990   Si       0.68475    0.60576    0.08033    1.000
    Si3991   Si       0.64081    0.60486    0.01360    1.000
    Si3992   Si       0.65133    0.51113    0.04756    1.000
    N3993    N        0.68373    0.51053    0.07681    1.000
    N3994    N        0.67868    0.70063    0.07766    1.000
    Si3995   Si       0.66446    0.72750    0.04472    1.000
    Si3996   Si       0.64323    0.72110    0.10159    1.000
    N3997    N        0.67765    0.75373    0.01231    1.000
    N3998    N        0.66364    0.54028    0.13339    1.000
    N3999    N        0.67677    0.58299    0.22636    1.000
    Si4000   Si       0.65853    0.58277    0.14594    1.000
    Si4001   Si       0.68272    0.64402    0.17604    1.000
    Si4002   Si       0.66737    0.68861    0.23416    1.000
    Si4003   Si       0.69199    0.71454    0.16276    1.000
    Si4004   Si       0.68261    0.75724    0.21815    1.000
    N4005    N        0.68308    0.71746    0.20420    1.000
    N4006    N        0.63957    0.64341    0.17078    1.000
    N4007    N        0.68538    0.65117    0.21827    1.000
    N4008    N        0.66410    0.73600    0.13909    1.000
    Si4009   Si       0.67353    0.60158    0.31355    1.000
    N4010    N        0.65171    0.57524    0.34601    1.000
    Si4011   Si       0.66390    0.55262    0.25940    1.000
    Si4012   Si       0.66737    0.53930    0.36250    1.000
    N4013    N        0.68836    0.56723    0.29129    1.000
    N4014    N        0.67209    0.51223    0.25295    1.000
    N4015    N        0.69145    0.63332    0.28474    1.000
    N4016    N        0.65656    0.74854    0.33114    1.000
    Si4017   Si       0.64807    0.73456    0.28901    1.000
    N4018    N        0.67091    0.69765    0.27688    1.000
    Si4019   Si       0.64733    0.71857    0.36134    1.000
    N4020    N        0.65779    0.61765    0.40760    1.000
    N4021    N        0.67005    0.55254    0.40583    1.000
    N4022    N        0.66679    0.52566    0.46558    1.000
    Si4023   Si       0.69144    0.55346    0.44462    1.000
    N4024    N        0.64062    0.68183    0.43747    1.000
    N4025    N        0.65905    0.67834    0.37248    1.000
    Si4026   Si       0.66123    0.71986    0.43704    1.000
    N4027    N        0.65861    0.75182    0.46787    1.000
    N4028    N        0.65854    0.73889    0.39680    1.000
    Si4029   Si       0.63734    0.65669    0.40213    1.000
    Si4030   Si       0.67983    0.59179    0.59628    1.000
    N4031    N        0.65198    0.58153    0.56404    1.000
    Si4032   Si       0.66049    0.62289    0.54894    1.000
    N4033    N        0.66981    0.51551    0.56016    1.000
    N4034    N        0.68153    0.63313    0.58927    1.000
    N4035    N        0.66975    0.63429    0.50702    1.000
    N4036    N        0.68097    0.70637    0.59549    1.000
    Si4037   Si       0.66981    0.66680    0.61292    1.000
    Si4038   Si       0.64905    0.67563    0.51602    1.000
    N4039    N        0.68670    0.69936    0.52467    1.000
    Si4040   Si       0.67712    0.74302    0.62083    1.000
    Si4041   Si       0.65887    0.55031    0.72448    1.000
    Si4042   Si       0.68187    0.58912    0.68302    1.000
    N4043    N        0.68508    0.58783    0.63944    1.000
    N4044    N        0.64452    0.58745    0.70528    1.000
    N4045    N        0.68646    0.67069    0.65257    1.000
    Si4046   Si       0.66162    0.69807    0.67669    1.000
    N4047    N        0.65520    0.73658    0.65589    1.000
    N4048    N        0.68505    0.71329    0.70822    1.000
    Si4049   Si       0.66030    0.59917    0.82692    1.000
    N4050    N        0.65951    0.54073    0.76644    1.000
    N4051    N        0.65786    0.61683    0.86744    1.000
    N4052    N        0.66500    0.63282    0.80111    1.000
    N4053    N        0.67247    0.69832    0.80316    1.000
    Si4054   Si       0.66035    0.74109    0.79709    1.000
    Si4055   Si       0.64256    0.66884    0.79606    1.000
    N4056    N        0.68458    0.74419    0.76147    1.000
    N4057    N        0.64081    0.67939    0.75213    1.000
    Si4058   Si       0.68003    0.70101    0.75072    1.000
    Si4059   Si       0.68022    0.51662    0.91182    1.000
    N4060    N        0.67098    0.61315    0.93413    1.000
    N4061    N        0.65064    0.54605    0.92626    1.000
    Si4062   Si       0.63868    0.58521    0.94043    1.000
    Si4063   Si       0.69134    0.61273    0.89592    1.000
    Si4064   Si       0.67708    0.64536    0.96148    1.000
    N4065    N        0.63760    0.73448    0.90678    1.000
    N4066    N        0.64654    0.64474    0.99389    1.000
    N4067    N        0.67628    0.68417    0.93961    1.000
    Si4068   Si       0.69489    0.51532    0.77155    1.000
    Si4069   Si       0.63744    0.69509    0.92267    1.000
    N4070    N        0.68413    0.82538    0.00833    1.000
    Si4071   Si       0.66980    0.86712    0.00127    1.000
    Si4072   Si       0.65868    0.79105    0.00210    1.000
    N4073    N        0.64922    0.75476    0.07630    1.000
    Si4074   Si       0.69300    0.93452    0.00980    1.000
    Si4075   Si       0.68746    0.89072    0.07428    1.000
    N4076    N        0.65257    0.90690    0.09180    1.000
    Si4077   Si       0.68149    0.98493    0.06806    1.000
    N4078    N        0.68823    0.89472    0.03140    1.000
    N4079    N        0.64346    0.99076    0.05027    1.000
    N4080    N        0.68516    0.96933    0.10837    1.000
    N4081    N        0.65600    0.80022    0.12121    1.000
    Si4082   Si       0.69033    0.82542    0.13297    1.000
    N4083    N        0.65702    0.78005    0.19079    1.000
    N4084    N        0.67500    0.84887    0.16810    1.000
    Si4085   Si       0.65821    0.82076    0.19601    1.000
    N4086    N        0.65422    0.83012    0.23787    1.000
    Si4087   Si       0.64238    0.77072    0.15128    1.000
    N4088    N        0.66102    0.90889    0.15472    1.000
    N4089    N        0.66501    0.95855    0.19901    1.000
    Si4090   Si       0.65651    0.91878    0.21901    1.000
    Si4091   Si       0.65483    0.93919    0.12288    1.000
    Si4092   Si       0.66987    0.80286    0.26705    1.000
    Si4093   Si       0.64802    0.78899    0.34104    1.000
    N4094    N        0.65184    0.81212    0.30464    1.000
    N4095    N        0.67326    0.87835    0.29345    1.000
    N4096    N        0.68035    0.80161    0.36734    1.000
    N4097    N        0.66698    0.75905    0.25979    1.000
    Si4098   Si       0.63889    0.85268    0.30541    1.000
    N4099    N        0.65992    0.94207    0.32590    1.000
    Si4100   Si       0.67239    0.92246    0.28830    1.000
    N4101    N        0.64241    0.93458    0.25758    1.000
    Si4102   Si       0.69261    0.96484    0.34149    1.000
    N4103    N        0.68102    0.87197    0.37823    1.000
    N4104    N        0.68182    0.87110    0.46453    1.000
    Si4105   Si       0.65275    0.78956    0.48895    1.000
    Si4106   Si       0.63979    0.85978    0.46123    1.000
    Si4107   Si       0.69287    0.76451    0.38889    1.000
    N4108    N        0.65470    0.93897    0.47777    1.000
    N4109    N        0.69666    0.79866    0.48907    1.000
    Si4110   Si       0.65691    0.98213    0.47533    1.000
    N4111    N        0.68392    0.99195    0.37494    1.000
    Si4112   Si       0.68734    0.91396    0.46231    1.000
    N4113    N        0.68422    0.99400    0.44448    1.000
    N4114    N        0.69262    0.92982    0.42190    1.000
    Si4115   Si       0.66732    0.78897    0.56229    1.000
    N4116    N        0.65146    0.76986    0.59689    1.000
    N4117    N        0.68476    0.82928    0.56777    1.000
    N4118    N        0.63923    0.78814    0.53026    1.000
    Si4119   Si       0.69445    0.84622    0.60672    1.000
    N4120    N        0.67429    0.98348    0.58250    1.000
    N4121    N        0.67311    0.98749    0.51639    1.000
    Si4122   Si       0.64256    0.97988    0.55030    1.000
    Si4123   Si       0.65015    0.99354    0.61618    1.000
    N4124    N        0.67772    0.87896    0.63041    1.000
    N4125    N        0.65052    0.84768    0.68689    1.000
    Si4126   Si       0.68772    0.85254    0.66572    1.000
    N4127    N        0.68265    0.80737    0.74137    1.000
    N4128    N        0.67672    0.87689    0.74270    1.000
    Si4129   Si       0.67993    0.76477    0.72391    1.000
    N4130    N        0.69104    0.81877    0.64098    1.000
    Si4131   Si       0.63666    0.89535    0.63513    1.000
    Si4132   Si       0.64550    0.88473    0.71258    1.000
    Si4133   Si       0.64380    0.95466    0.68219    1.000
    N4134    N        0.66125    0.97238    0.71819    1.000
    N4135    N        0.66882    0.97968    0.65454    1.000
    N4136    N        0.64324    0.91151    0.67773    1.000
    N4137    N        0.69977    0.76285    0.55022    1.000
    N4138    N        0.66398    0.83991    0.80021    1.000
    Si4139   Si       0.64750    0.85175    0.83788    1.000
    Si4140   Si       0.65849    0.83947    0.75815    1.000
    Si4141   Si       0.64427    0.78364    0.85043    1.000
    N4142    N        0.68681    0.84567    0.85622    1.000
    N4143    N        0.67592    0.76878    0.82739    1.000
    Si4144   Si       0.65731    0.99467    0.85485    1.000
    N4145    N        0.66525    0.95652    0.83535    1.000
    N4146    N        0.66990    0.99843    0.77942    1.000
    Si4147   Si       0.63810    0.93204    0.86210    1.000
    Si4148   Si       0.69096    0.96589    0.80074    1.000
    N4149    N        0.67086    0.95499    0.97801    1.000
    Si4150   Si       0.66235    0.76501    0.92530    1.000
    N4151    N        0.66710    0.79127    0.88966    1.000
    N4152    N        0.64925    0.84776    0.91826    1.000
    Si4153   Si       0.68364    0.83267    0.89700    1.000
    N4154    N        0.64942    0.79102    0.96045    1.000
    N4155    N        0.66532    0.91187    0.89484    1.000
    N4156    N        0.67939    0.88433    0.96370    1.000
    Si4157   Si       0.65199    0.89111    0.93038    1.000
    Si4158   Si       0.71787    0.05318    0.09669    1.000
    Si4159   Si       0.71649    0.05702    0.03006    1.000
    N4160    N        0.74438    0.05054    0.06332    1.000
    N4161    N        0.71002    0.09397    0.10970    1.000
    N4162    N        0.70038    0.09704    0.04098    1.000
    Si4163   Si       0.75128    0.15670    0.03085    1.000
    N4164    N        0.72557    0.15393    0.06695    1.000
    Si4165   Si       0.72601    0.19591    0.07455    1.000
    N4166    N        0.74398    0.21768    0.10715    1.000
    Si4167   Si       0.70090    0.22163    0.00773    1.000
    N4168    N        0.72971    0.25450    0.00572    1.000
    N4169    N        0.72180    0.14385    0.00158    1.000
    N4170    N        0.73178    0.20065    0.17675    1.000
    Si4171   Si       0.69898    0.12056    0.07700    1.000
    N4172    N        0.73189    0.02820    0.12909    1.000
    N4173    N        0.72199    0.08842    0.17628    1.000
    Si4174   Si       0.71950    0.05705    0.20581    1.000
    Si4175   Si       0.74682    0.11629    0.24382    1.000
    N4176    N        0.72128    0.07900    0.24371    1.000
    Si4177   Si       0.71407    0.21519    0.13843    1.000
    N4178    N        0.73457    0.22443    0.24501    1.000
    Si4179   Si       0.70782    0.21573    0.21262    1.000
    N4180    N        0.73038    0.14660    0.21801    1.000
    N4181    N        0.70597    0.25762    0.13449    1.000
    Si4182   Si       0.72827    0.02370    0.32351    1.000
    N4183    N        0.72501    0.11916    0.35670    1.000
    Si4184   Si       0.72901    0.07239    0.28716    1.000
    N4185    N        0.74501    0.11400    0.28770    1.000
    N4186    N        0.70152    0.06173    0.31816    1.000
    N4187    N        0.75185    0.03531    0.28927    1.000
    Si4188   Si       0.74466    0.13803    0.32307    1.000
    N4189    N        0.72700    0.17838    0.31269    1.000
    Si4190   Si       0.73969    0.21417    0.28747    1.000
    N4191    N        0.70655    0.22061    0.35747    1.000
    N4192    N        0.74165    0.25576    0.30093    1.000
    Si4193   Si       0.69926    0.07364    0.42834    1.000
    N4194    N        0.71811    0.11313    0.43275    1.000
    N4195    N        0.72919    0.05316    0.45347    1.000
    Si4196   Si       0.75425    0.07390    0.48359    1.000
    N4197    N        0.73170    0.10737    0.49862    1.000
    Si4198   Si       0.73148    0.13634    0.46754    1.000
    Si4199   Si       0.72249    0.13744    0.39608    1.000
    N4200    N        0.74318    0.17664    0.39857    1.000
    Si4201   Si       0.70030    0.25444    0.38238    1.000
    N4202    N        0.73510    0.24170    0.40812    1.000
    Si4203   Si       0.75070    0.18862    0.44249    1.000
    Si4204   Si       0.74682    0.21326    0.37577    1.000
    N4205    N        0.71179    0.17453    0.45998    1.000
    N4206    N        0.75169    0.01933    0.35723    1.000
    Si4207   Si       0.72581    0.01024    0.45490    1.000
    Si4208   Si       0.73797    0.10842    0.60951    1.000
    Si4209   Si       0.72562    0.12037    0.53952    1.000
    N4210    N        0.72277    0.02384    0.56046    1.000
    N4211    N        0.73632    0.09220    0.56997    1.000
    Si4212   Si       0.70203    0.02139    0.52198    1.000
    N4213    N        0.71764    0.15979    0.67816    1.000
    N4214    N        0.74961    0.15569    0.54675    1.000
    N4215    N        0.74190    0.21911    0.52057    1.000
    Si4216   Si       0.73180    0.19483    0.55456    1.000
    Si4217   Si       0.70984    0.24743    0.52258    1.000
    N4218    N        0.69877    0.25619    0.56435    1.000
    Si4219   Si       0.75572    0.23611    0.61384    1.000
    N4220    N        0.74966    0.07229    0.71010    1.000
    Si4221   Si       0.72366    0.06930    0.67368    1.000
    N4222    N        0.70698    0.02984    0.67073    1.000
    N4223    N        0.74685    0.07701    0.63826    1.000
    N4224    N        0.72488    0.22931    0.64080    1.000
    Si4225   Si       0.75058    0.15692    0.70837    1.000
    Si4226   Si       0.72127    0.20402    0.67675    1.000
    N4227    N        0.72304    0.13581    0.74081    1.000
    Si4228   Si       0.75394    0.05268    0.56088    1.000
    Si4229   Si       0.72278    0.02357    0.83710    1.000
    Si4230   Si       0.73386    0.08892    0.74904    1.000
    N4231    N        0.74823    0.04531    0.77719    1.000
    Si4232   Si       0.70169    0.03182    0.77104    1.000
    N4233    N        0.74991    0.10758    0.78843    1.000
    N4234    N        0.69520    0.01073    0.86883    1.000
    Si4235   Si       0.70637    0.21440    0.77514    1.000
    Si4236   Si       0.71688    0.17817    0.83826    1.000
    N4237    N        0.71682    0.17514    0.79431    1.000
    N4238    N        0.71273    0.22084    0.85005    1.000
    N4239    N        0.73807    0.24094    0.76179    1.000
    N4240    N        0.75224    0.16443    0.85950    1.000
    Si4241   Si       0.75360    0.14929    0.77920    1.000
    Si4242   Si       0.69972    0.25860    0.83124    1.000
    Si4243   Si       0.70978    0.04234    0.96843    1.000
    N4244    N        0.71759    0.07488    0.94278    1.000
    N4245    N        0.69734    0.01030    0.94419    1.000
    N4246    N        0.74418    0.04459    0.99724    1.000
    N4247    N        0.73576    0.14036    0.92958    1.000
    N4248    N        0.71517    0.20108    0.96938    1.000
    Si4249   Si       0.71749    0.22474    0.93363    1.000
    Si4250   Si       0.71565    0.15908    0.96128    1.000
    Si4251   Si       0.75149    0.10002    0.93641    1.000
    Si4252   Si       0.74052    0.32056    0.06631    1.000
    N4253    N        0.74001    0.33543    0.10909    1.000
    N4254    N        0.70492    0.32145    0.04200    1.000
    N4255    N        0.74894    0.27706    0.06829    1.000
    N4256    N        0.71318    0.37798    0.00803    1.000
    Si4257   Si       0.69924    0.33014    0.99869    1.000
    N4258    N        0.73745    0.40325    0.09252    1.000
    N4259    N        0.73662    0.47308    0.09037    1.000
    Si4260   Si       0.73651    0.45036    0.01308    1.000
    N4261    N        0.70331    0.44360    0.04060    1.000
    N4262    N        0.74267    0.49297    0.00007    1.000
    N4263    N        0.70368    0.43532    0.16369    1.000
    Si4264   Si       0.72706    0.31368    0.21282    1.000
    N4265    N        0.71676    0.31369    0.16558    1.000
    Si4266   Si       0.70255    0.33507    0.13093    1.000
    N4267    N        0.74778    0.35268    0.20986    1.000
    Si4268   Si       0.69510    0.40087    0.10209    1.000
    Si4269   Si       0.72270    0.38624    0.22705    1.000
    N4270    N        0.71494    0.47370    0.23411    1.000
    Si4271   Si       0.74720    0.42930    0.16696    1.000
    N4272    N        0.74503    0.41866    0.21081    1.000
    Si4273   Si       0.69560    0.46779    0.07508    1.000
    Si4274   Si       0.73888    0.26134    0.10696    1.000
    Si4275   Si       0.73590    0.30009    0.29756    1.000
    Si4276   Si       0.70656    0.36898    0.30608    1.000
    N4277    N        0.70232    0.32745    0.30120    1.000
    N4278    N        0.73906    0.29803    0.25303    1.000
    N4279    N        0.71161    0.29259    0.36202    1.000
    Si4280   Si       0.74829    0.31675    0.36266    1.000
    N4281    N        0.72946    0.38504    0.27034    1.000
    N4282    N        0.73515    0.39098    0.33357    1.000
    Si4283   Si       0.71000    0.48314    0.34615    1.000
    Si4284   Si       0.70294    0.48798    0.27389    1.000
    N4285    N        0.75316    0.48007    0.34419    1.000
    N4286    N        0.73794    0.34849    0.39043    1.000
    N4287    N        0.73279    0.35697    0.46224    1.000
    Si4288   Si       0.74360    0.49254    0.45731    1.000
    N4289    N        0.69961    0.40484    0.40026    1.000
    Si4290   Si       0.73310    0.39043    0.37737    1.000
    N4291    N        0.71674    0.47364    0.48734    1.000
    N4292    N        0.73236    0.46453    0.42576    1.000
    Si4293   Si       0.75388    0.33342    0.43011    1.000
    Si4294   Si       0.69454    0.44813    0.41381    1.000
    N4295    N        0.72185    0.28758    0.51242    1.000
    Si4296   Si       0.73729    0.36635    0.53268    1.000
    Si4297   Si       0.70908    0.28501    0.59547    1.000
    Si4298   Si       0.70590    0.35778    0.59715    1.000
    N4299    N        0.73705    0.37695    0.57436    1.000
    N4300    N        0.75351    0.27843    0.59943    1.000
    N4301    N        0.69880    0.32133    0.57622    1.000
    N4302    N        0.73787    0.44214    0.71473    1.000
    Si4303   Si       0.72436    0.45974    0.59309    1.000
    Si4304   Si       0.71649    0.43693    0.51387    1.000
    N4305    N        0.70860    0.45532    0.55152    1.000
    N4306    N        0.74698    0.40544    0.51408    1.000
    N4307    N        0.72849    0.50187    0.60146    1.000
    N4308    N        0.71963    0.35033    0.63864    1.000
    Si4309   Si       0.71501    0.33021    0.74108    1.000
    N4310    N        0.70995    0.37370    0.74246    1.000
    N4311    N        0.69536    0.31763    0.70322    1.000
    Si4312   Si       0.72221    0.48301    0.70810    1.000
    Si4313   Si       0.72306    0.39882    0.70853    1.000
    N4314    N        0.71104    0.49065    0.66826    1.000
    N4315    N        0.73974    0.27620    0.82442    1.000
    N4316    N        0.74801    0.33628    0.86037    1.000
    Si4317   Si       0.70632    0.34781    0.84591    1.000
    N4318    N        0.74848    0.31377    0.76122    1.000
    N4319    N        0.71109    0.37559    0.81344    1.000
    Si4320   Si       0.75418    0.27622    0.78201    1.000
    Si4321   Si       0.70807    0.41639    0.88106    1.000
    Si4322   Si       0.71760    0.41974    0.81052    1.000
    Si4323   Si       0.70698    0.48046    0.84312    1.000
    N4324    N        0.69835    0.43785    0.84473    1.000
    N4325    N        0.69717    0.37375    0.88124    1.000
    N4326    N        0.71061    0.26621    0.94219    1.000
    N4327    N        0.73652    0.31748    0.97846    1.000
    Si4328   Si       0.74170    0.27624    0.97018    1.000
    N4329    N        0.73561    0.36813    0.93569    1.000
    Si4330   Si       0.74167    0.36453    0.89395    1.000
    Si4331   Si       0.71564    0.39168    0.96572    1.000
    N4332    N        0.72523    0.43369    0.97478    1.000
    Si4333   Si       0.72196    0.46005    0.94010    1.000
    N4334    N        0.75019    0.40552    0.88248    1.000
    N4335    N        0.69934    0.49824    0.94616    1.000
    Si4336   Si       0.71351    0.59970    0.00963    1.000
    N4337    N        0.70857    0.57616    0.10223    1.000
    Si4338   Si       0.70082    0.53407    0.10982    1.000
    N4339    N        0.75021    0.60691    0.03343    1.000
    N4340    N        0.71295    0.63873    0.08291    1.000
    N4341    N        0.74122    0.70229    0.09976    1.000
    Si4342   Si       0.72023    0.74661    0.00256    1.000
    Si4343   Si       0.70326    0.67415    0.10259    1.000
    N4344    N        0.74619    0.67495    0.03555    1.000
    N4345    N        0.73775    0.74300    0.04134    1.000
    Si4346   Si       0.75149    0.63992    0.06097    1.000
    Si4347   Si       0.73128    0.59126    0.13623    1.000
    N4348    N        0.71228    0.53212    0.19780    1.000
    N4349    N        0.73389    0.52101    0.13282    1.000
    Si4350   Si       0.71443    0.57737    0.20201    1.000
    Si4351   Si       0.74579    0.52809    0.17224    1.000
    N4352    N        0.73635    0.60469    0.23152    1.000
    N4353    N        0.75077    0.57173    0.17219    1.000
    Si4354   Si       0.69678    0.61818    0.24490    1.000
    N4355    N        0.69496    0.60209    0.16478    1.000
    N4356    N        0.69692    0.67345    0.14820    1.000
    N4357    N        0.73481    0.73196    0.16347    1.000
    Si4358   Si       0.72132    0.54511    0.31136    1.000
    Si4359   Si       0.73719    0.60458    0.35708    1.000
    N4360    N        0.74952    0.57627    0.32295    1.000
    N4361    N        0.73792    0.51223    0.28737    1.000
    N4362    N        0.70327    0.52602    0.34553    1.000
    N4363    N        0.69909    0.62171    0.34749    1.000
    Si4364   Si       0.70485    0.67277    0.29441    1.000
    N4365    N        0.71749    0.68641    0.33511    1.000
    N4366    N        0.74000    0.68129    0.27114    1.000
    Si4367   Si       0.74780    0.71590    0.34794    1.000
    N4368    N        0.72725    0.74934    0.36538    1.000
    Si4369   Si       0.69758    0.66180    0.36622    1.000
    N4370    N        0.72841    0.58974    0.39813    1.000
    N4371    N        0.73043    0.53193    0.44270    1.000
    Si4372   Si       0.70780    0.62465    0.49121    1.000
    Si4373   Si       0.70003    0.61563    0.41694    1.000
    N4374    N        0.69913    0.59456    0.45868    1.000
    Si4375   Si       0.75347    0.56126    0.41946    1.000
    N4376    N        0.71302    0.65670    0.40778    1.000
    N4377    N        0.72449    0.66231    0.47847    1.000
    N4378    N        0.73319    0.74444    0.49162    1.000
    N4379    N        0.70208    0.71263    0.44725    1.000
    Si4380   Si       0.71312    0.70223    0.49069    1.000
    Si4381   Si       0.73094    0.68117    0.43828    1.000
    N4382    N        0.71809    0.56867    0.58677    1.000
    N4383    N        0.72889    0.60822    0.52396    1.000
    Si4384   Si       0.73842    0.57347    0.54704    1.000
    N4385    N        0.73510    0.53348    0.53765    1.000
    Si4386   Si       0.70980    0.52736    0.57213    1.000
    N4387    N        0.74535    0.72017    0.57168    1.000
    Si4388   Si       0.70384    0.71872    0.56095    1.000
    Si4389   Si       0.74051    0.54923    0.69827    1.000
    N4390    N        0.71248    0.61741    0.69470    1.000
    N4391    N        0.74289    0.55011    0.65526    1.000
    Si4392   Si       0.72903    0.58084    0.62812    1.000
    Si4393   Si       0.73868    0.61273    0.72843    1.000
    N4394    N        0.74167    0.62326    0.63070    1.000
    Si4395   Si       0.74094    0.50892    0.64175    1.000
    N4396    N        0.74924    0.67290    0.68381    1.000
    Si4397   Si       0.74696    0.67938    0.72800    1.000
    N4398    N        0.71830    0.75637    0.62511    1.000
    Si4399   Si       0.72063    0.64740    0.66369    1.000
    N4400    N        0.69774    0.55382    0.70576    1.000
    N4401    N        0.73167    0.53640    0.77868    1.000
    N4402    N        0.71743    0.60376    0.76564    1.000
    Si4403   Si       0.73033    0.57733    0.79685    1.000
    Si4404   Si       0.71754    0.54990    0.86023    1.000
    N4405    N        0.69808    0.57453    0.82687    1.000
    N4406    N        0.70224    0.75273    0.93196    1.000
    N4407    N        0.73254    0.73165    0.81427    1.000
    Si4408   Si       0.71129    0.69629    0.82536    1.000
    N4409    N        0.73182    0.66088    0.81103    1.000
    Si4410   Si       0.70427    0.64171    0.78190    1.000
    N4411    N        0.70605    0.69634    0.86828    1.000
    N4412    N        0.70958    0.66980    0.74769    1.000
    N4413    N        0.70025    0.51255    0.87110    1.000
    N4414    N        0.71706    0.57635    0.89551    1.000
    Si4415   Si       0.70858    0.51901    0.98438    1.000
    N4416    N        0.71671    0.56166    0.98519    1.000
    Si4417   Si       0.70998    0.71205    0.94095    1.000
    N4418    N        0.71232    0.63608    0.98626    1.000
    N4419    N        0.74810    0.70126    0.92176    1.000
    Si4420   Si       0.73772    0.67012    0.99456    1.000
    Si4421   Si       0.73919    0.67638    0.88723    1.000
    N4422    N        0.72422    0.70812    0.98072    1.000
    N4423    N        0.72696    0.63740    0.90310    1.000
    N4424    N        0.74683    0.83245    0.04338    1.000
    Si4425   Si       0.73933    0.87870    0.11018    1.000
    N4426    N        0.70148    0.85579    0.10175    1.000
    Si4427   Si       0.72747    0.82308    0.00549    1.000
    Si4428   Si       0.74128    0.94616    0.06349    1.000
    N4429    N        0.72628    0.90961    0.08316    1.000
    N4430    N        0.70676    0.96434    0.04061    1.000
    Si4431   Si       0.69563    0.88817    0.17062    1.000
    N4432    N        0.71914    0.79997    0.15142    1.000
    N4433    N        0.72195    0.77704    0.21641    1.000
    Si4434   Si       0.74020    0.77386    0.17738    1.000
    Si4435   Si       0.70234    0.98524    0.19881    1.000
    Si4436   Si       0.72801    0.90801    0.23574    1.000
    Si4437   Si       0.72084    0.98466    0.12512    1.000
    N4438    N        0.73434    0.88543    0.15178    1.000
    N4439    N        0.73144    0.98481    0.23353    1.000
    N4440    N        0.72987    0.97208    0.16577    1.000
    N4441    N        0.69396    0.89906    0.21273    1.000
    N4442    N        0.71083    0.81555    0.27275    1.000
    N4443    N        0.72744    0.85186    0.32811    1.000
    Si4444   Si       0.71071    0.85550    0.28812    1.000
    Si4445   Si       0.70424    0.83720    0.36339    1.000
    N4446    N        0.74045    0.87570    0.26281    1.000
    N4447    N        0.71268    0.98667    0.31051    1.000
    N4448    N        0.70988    0.93394    0.26721    1.000
    Si4449   Si       0.73278    0.97048    0.27454    1.000
    N4450    N        0.71744    0.93458    0.36030    1.000
    Si4451   Si       0.70149    0.75855    0.45985    1.000
    N4452    N        0.74284    0.82194    0.38046    1.000
    N4453    N        0.71022    0.78055    0.42534    1.000
    Si4454   Si       0.71075    0.84210    0.48087    1.000
    Si4455   Si       0.74389    0.80587    0.42094    1.000
    N4456    N        0.74551    0.83553    0.45273    1.000
    N4457    N        0.71692    0.92481    0.49306    1.000
    Si4458   Si       0.70994    0.90577    0.39105    1.000
    Si4459   Si       0.70096    0.97194    0.41226    1.000
    N4460    N        0.74145    0.98379    0.42192    1.000
    N4461    N        0.72980    0.99858    0.49557    1.000
    Si4462   Si       0.75755    0.77973    0.36848    1.000
    Si4463   Si       0.74539    0.79757    0.24805    1.000
    N4464    N        0.72474    0.86246    0.51540    1.000
    N4465    N        0.73526    0.84899    0.59476    1.000
    Si4466   Si       0.72385    0.83801    0.55299    1.000
    Si4467   Si       0.72150    0.77934    0.51730    1.000
    N4468    N        0.74726    0.80747    0.53601    1.000
    Si4469   Si       0.71214    0.98481    0.66116    1.000
    N4470    N        0.73071    0.95887    0.55191    1.000
    Si4471   Si       0.71608    0.98650    0.58200    1.000
    Si4472   Si       0.70997    0.96104    0.51442    1.000
    Si4473   Si       0.74780    0.89787    0.50485    1.000
    N4474    N        0.72913    0.97690    0.62224    1.000
    Si4475   Si       0.71912    0.81461    0.72211    1.000
    N4476    N        0.72136    0.84940    0.69430    1.000
    Si4477   Si       0.71792    0.78936    0.65488    1.000
    N4478    N        0.71043    0.77935    0.69544    1.000
    N4479    N        0.72376    0.95660    0.69316    1.000
    Si4480   Si       0.70171    0.96535    0.73242    1.000
    N4481    N        0.74914    0.88783    0.74334    1.000
    N4482    N        0.73266    0.80573    0.81085    1.000
    Si4483   Si       0.70516    0.83852    0.81691    1.000
    Si4484   Si       0.71936    0.76953    0.83107    1.000
    N4485    N        0.71892    0.87756    0.80292    1.000
    N4486    N        0.73808    0.77496    0.86989    1.000
    Si4487   Si       0.70930    0.89493    0.76385    1.000
    N4488    N        0.72762    0.98468    0.81849    1.000
    N4489    N        0.73509    0.92609    0.85372    1.000
    N4490    N        0.70342    0.93845    0.76742    1.000
    Si4491   Si       0.74874    0.89296    0.83077    1.000
    N4492    N        0.72381    0.99914    0.74768    1.000
    Si4493   Si       0.72824    0.78269    0.91374    1.000
    N4494    N        0.72325    0.82532    0.91307    1.000
    N4495    N        0.73988    0.85651    0.98120    1.000
    N4496    N        0.73539    0.78448    0.98757    1.000
    Si4497   Si       0.75227    0.85849    0.90399    1.000
    Si4498   Si       0.71004    0.96633    0.95750    1.000
    N4499    N        0.71298    0.95980    0.91457    1.000
    Si4500   Si       0.72213    0.89086    0.95931    1.000
    N4501    N        0.73066    0.89408    0.91736    1.000
    Si4502   Si       0.71667    0.00298    0.90685    1.000
    N4503    N        0.72583    0.92963    0.98021    1.000
    Si4504   Si       0.70904    0.92376    0.88945    1.000
    Si4505   Si       0.78657    0.05683    0.05926    1.000
    N4506    N        0.79941    0.09328    0.08171    1.000
    N4507    N        0.80461    0.05970    0.01878    1.000
    N4508    N        0.80535    0.02156    0.07789    1.000
    Si4509   Si       0.81360    0.12859    0.06150    1.000
    N4510    N        0.78896    0.13526    0.02618    1.000
    N4511    N        0.76003    0.20106    0.04556    1.000
    Si4512   Si       0.80072    0.19877    0.06436    1.000
    N4513    N        0.79846    0.16202    0.08692    1.000
    Si4514   Si       0.75713    0.24649    0.03889    1.000
    N4515    N        0.81271    0.23397    0.08822    1.000
    N4516    N        0.79775    0.25770    0.02589    1.000
    Si4517   Si       0.76444    0.10102    0.17863    1.000
    Si4518   Si       0.76532    0.03381    0.15807    1.000
    N4519    N        0.78429    0.07329    0.15339    1.000
    N4520    N        0.78122    0.10472    0.22043    1.000
    N4521    N        0.75588    0.03336    0.20064    1.000
    N4522    N        0.76951    0.14032    0.16166    1.000
    N4523    N        0.79389    0.18572    0.21024    1.000
    Si4524   Si       0.75893    0.16943    0.19229    1.000
    Si4525   Si       0.79680    0.15520    0.12966    1.000
    N4526    N        0.79966    0.24879    0.23607    1.000
    N4527    N        0.80226    0.19585    0.14492    1.000
    Si4528   Si       0.79782    0.23643    0.12938    1.000
    Si4529   Si       0.77166    0.00512    0.23063    1.000
    Si4530   Si       0.79502    0.03750    0.28906    1.000
    N4531    N        0.80587    0.07859    0.28590    1.000
    N4532    N        0.80828    0.02265    0.25029    1.000
    N4533    N        0.76991    0.15238    0.45853    1.000
    N4534    N        0.77506    0.22222    0.45710    1.000
    N4535    N        0.78882    0.14410    0.33158    1.000
    N4536    N        0.78290    0.20075    0.28357    1.000
    Si4537   Si       0.79722    0.18670    0.32126    1.000
    N4538    N        0.78572    0.21310    0.35652    1.000
    Si4539   Si       0.80404    0.20629    0.24713    1.000
    N4540    N        0.79526    0.11821    0.40054    1.000
    N4541    N        0.78661    0.01428    0.45922    1.000
    Si4542   Si       0.80094    0.12429    0.44426    1.000
    N4543    N        0.79222    0.08595    0.46461    1.000
    N4544    N        0.81077    0.24465    0.41303    1.000
    N4545    N        0.78510    0.04382    0.58930    1.000
    N4546    N        0.76443    0.04848    0.51843    1.000
    Si4547   Si       0.77181    0.00989    0.50113    1.000
    Si4548   Si       0.79706    0.23108    0.67930    1.000
    N4549    N        0.75840    0.20486    0.58625    1.000
    N4550    N        0.76926    0.13900    0.61110    1.000
    Si4551   Si       0.78016    0.16634    0.58059    1.000
    Si4552   Si       0.78030    0.22856    0.50223    1.000
    N4553    N        0.79095    0.01514    0.73131    1.000
    Si4554   Si       0.78591    0.05933    0.63022    1.000
    Si4555   Si       0.78728    0.04971    0.70577    1.000
    N4556    N        0.78904    0.03015    0.66531    1.000
    Si4557   Si       0.80529    0.12407    0.71836    1.000
    Si4558   Si       0.79672    0.13298    0.64413    1.000
    N4559    N        0.78075    0.13538    0.68366    1.000
    N4560    N        0.75933    0.20597    0.69821    1.000
    Si4561   Si       0.77012    0.23366    0.73228    1.000
    N4562    N        0.78099    0.15325    0.74336    1.000
    N4563    N        0.78948    0.24686    0.63928    1.000
    Si4564   Si       0.76839    0.07098    0.80540    1.000
    N4565    N        0.75932    0.04912    0.84257    1.000
    Si4566   Si       0.78794    0.22547    0.89330    1.000
    N4567    N        0.80883    0.20506    0.85677    1.000
    Si4568   Si       0.79313    0.16656    0.84436    1.000
    N4569    N        0.78412    0.16976    0.80305    1.000
    N4570    N        0.80360    0.21466    0.75065    1.000
    N4571    N        0.80588    0.02765    0.95851    1.000
    N4572    N        0.78297    0.09622    0.96604    1.000
    Si4573   Si       0.80851    0.12643    0.98430    1.000
    N4574    N        0.77265    0.08950    0.89936    1.000
    Si4575   Si       0.78324    0.05498    0.98275    1.000
    Si4576   Si       0.80892    0.11754    0.88790    1.000
    Si4577   Si       0.77611    0.05041    0.88245    1.000
    N4578    N        0.75657    0.01811    0.90666    1.000
    Si4579   Si       0.75590    0.16634    0.90162    1.000
    N4580    N        0.75327    0.20898    0.91440    1.000
    N4581    N        0.79778    0.15504    0.90616    1.000
    N4582    N        0.76916    0.34964    0.05073    1.000
    N4583    N        0.80351    0.36641    0.10114    1.000
    Si4584   Si       0.76229    0.37272    0.11044    1.000
    Si4585   Si       0.75596    0.38227    0.02512    1.000
    Si4586   Si       0.81111    0.34384    0.06555    1.000
    N4587    N        0.80076    0.48333    0.03766    1.000
    N4588    N        0.79358    0.45560    0.09772    1.000
    N4589    N        0.76645    0.42440    0.03602    1.000
    Si4590   Si       0.76714    0.48885    0.11777    1.000
    Si4591   Si       0.80948    0.44071    0.03416    1.000
    N4592    N        0.77110    0.27083    0.13331    1.000
    N4593    N        0.79239    0.33206    0.16617    1.000
    Si4594   Si       0.77961    0.36997    0.18516    1.000
    Si4595   Si       0.76033    0.30427    0.15885    1.000
    Si4596   Si       0.80918    0.27535    0.20171    1.000
    N4597    N        0.76369    0.28405    0.19766    1.000
    Si4598   Si       0.75748    0.26029    0.23725    1.000
    Si4599   Si       0.79918    0.48138    0.18690    1.000
    N4600    N        0.76084    0.39041    0.15210    1.000
    N4601    N        0.79040    0.46691    0.22686    1.000
    N4602    N        0.76960    0.46727    0.15808    1.000
    Si4603   Si       0.75811    0.44034    0.07606    1.000
    Si4604   Si       0.75373    0.44990    0.23861    1.000
    Si4605   Si       0.78375    0.50868    0.00659    1.000
    Si4606   Si       0.80029    0.34698    0.32487    1.000
    N4607    N        0.76364    0.32314    0.32278    1.000
    N4608    N        0.80905    0.34528    0.36757    1.000
    N4609    N        0.79890    0.38834    0.30864    1.000
    Si4610   Si       0.76684    0.48078    0.30260    1.000
    N4611    N        0.80906    0.48384    0.29369    1.000
    Si4612   Si       0.75965    0.40434    0.29746    1.000
    N4613    N        0.75679    0.44455    0.28248    1.000
    N4614    N        0.77282    0.29814    0.39468    1.000
    N4615    N        0.78787    0.36163    0.43403    1.000
    Si4616   Si       0.76965    0.26205    0.42523    1.000
    Si4617   Si       0.80037    0.37699    0.39557    1.000
    N4618    N        0.76108    0.29513    0.45557    1.000
    N4619    N        0.78360    0.49117    0.47323    1.000
    N4620    N        0.80169    0.37829    0.49333    1.000
    Si4621   Si       0.76732    0.44153    0.41637    1.000
    Si4622   Si       0.78100    0.50150    0.37145    1.000
    N4623    N        0.79292    0.47511    0.40282    1.000
    N4624    N        0.77701    0.42575    0.45396    1.000
    N4625    N        0.76967    0.40920    0.39007    1.000
    Si4626   Si       0.76587    0.38490    0.46873    1.000
    Si4627   Si       0.80543    0.45170    0.47322    1.000
    N4628    N        0.76708    0.33478    0.52566    1.000
    N4629    N        0.79254    0.26861    0.51000    1.000
    Si4630   Si       0.80816    0.34612    0.52329    1.000
    Si4631   Si       0.76178    0.29723    0.49995    1.000
    N4632    N        0.79878    0.39171    0.56248    1.000
    Si4633   Si       0.76837    0.40055    0.59267    1.000
    Si4634   Si       0.79015    0.40988    0.52486    1.000
    N4635    N        0.76567    0.44342    0.60121    1.000
    Si4636   Si       0.79960    0.46586    0.61542    1.000
    N4637    N        0.81350    0.44419    0.51425    1.000
    Si4638   Si       0.78704    0.29057    0.62558    1.000
    N4639    N        0.78400    0.26641    0.70421    1.000
    Si4640   Si       0.80310    0.30488    0.69870    1.000
    N4641    N        0.80230    0.33744    0.72723    1.000
    Si4642   Si       0.79349    0.37739    0.71518    1.000
    N4643    N        0.78406    0.31551    0.66054    1.000
    Si4644   Si       0.75928    0.35250    0.65606    1.000
    N4645    N        0.78188    0.38076    0.62948    1.000
    Si4646   Si       0.80772    0.49694    0.68103    1.000
    Si4647   Si       0.77591    0.44618    0.73432    1.000
    N4648    N        0.77826    0.48776    0.64816    1.000
    N4649    N        0.80881    0.46139    0.70861    1.000
    N4650    N        0.78789    0.40553    0.74628    1.000
    N4651    N        0.75532    0.37563    0.69221    1.000
    N4652    N        0.78805    0.35587    0.79610    1.000
    N4653    N        0.80155    0.30721    0.84031    1.000
    Si4654   Si       0.78809    0.34852    0.83865    1.000
    N4655    N        0.79828    0.27692    0.77658    1.000
    Si4656   Si       0.76476    0.29358    0.85773    1.000
    Si4657   Si       0.80198    0.32130    0.76929    1.000
    N4658    N        0.81171    0.37063    0.86802    1.000
    Si4659   Si       0.77738    0.46392    0.81179    1.000
    N4660    N        0.77311    0.47525    0.76941    1.000
    Si4661   Si       0.78888    0.39868    0.78853    1.000
    N4662    N        0.75918    0.42418    0.80618    1.000
    N4663    N        0.81066    0.49313    0.82418    1.000
    Si4664   Si       0.79921    0.29090    0.92365    1.000
    N4665    N        0.78215    0.26940    0.89004    1.000
    N4666    N        0.77804    0.37623    0.98771    1.000
    N4667    N        0.78412    0.27393    0.96036    1.000
    N4668    N        0.79282    0.33340    0.92712    1.000
    Si4669   Si       0.76499    0.34534    0.96040    1.000
    N4670    N        0.80627    0.50600    0.89141    1.000
    N4671    N        0.80361    0.40041    0.92824    1.000
    Si4672   Si       0.78157    0.42703    0.90225    1.000
    N4673    N        0.76272    0.46023    0.92383    1.000
    Si4674   Si       0.80945    0.39915    0.97059    1.000
    N4675    N        0.75180    0.47896    0.84252    1.000
    Si4676   Si       0.78117    0.50547    0.85652    1.000
    Si4677   Si       0.78796    0.58657    0.02888    1.000
    N4678    N        0.77871    0.55170    0.00573    1.000
    N4679    N        0.79318    0.51965    0.10008    1.000
    N4680    N        0.76617    0.60367    0.11645    1.000
    N4681    N        0.80699    0.57777    0.06726    1.000
    Si4682   Si       0.79189    0.56308    0.10661    1.000
    N4683    N        0.78833    0.65484    0.22102    1.000
    Si4684   Si       0.75648    0.71034    0.06012    1.000
    N4685    N        0.78735    0.65395    0.08167    1.000
    N4686    N        0.80176    0.71510    0.05771    1.000
    Si4687   Si       0.79033    0.63895    0.12150    1.000
    N4688    N        0.80624    0.58723    0.21581    1.000
    N4689    N        0.78768    0.52376    0.18313    1.000
    Si4690   Si       0.77839    0.61413    0.23448    1.000
    Si4691   Si       0.79459    0.56623    0.18018    1.000
    N4692    N        0.80337    0.71962    0.20334    1.000
    Si4693   Si       0.80490    0.73617    0.24413    1.000
    N4694    N        0.78182    0.67034    0.15058    1.000
    Si4695   Si       0.80684    0.74896    0.17225    1.000
    Si4696   Si       0.76053    0.70673    0.13816    1.000
    Si4697   Si       0.80506    0.67839    0.18893    1.000
    N4698    N        0.79561    0.73383    0.13352    1.000
    Si4699   Si       0.78181    0.60134    0.31188    1.000
    N4700    N        0.78677    0.62563    0.27524    1.000
    N4701    N        0.77314    0.62676    0.34893    1.000
    Si4702   Si       0.80823    0.55578    0.35836    1.000
    Si4703   Si       0.78063    0.66769    0.26276    1.000
    N4704    N        0.78191    0.72876    0.32421    1.000
    N4705    N        0.80673    0.70055    0.27053    1.000
    Si4706   Si       0.79742    0.65926    0.36511    1.000
    N4707    N        0.77324    0.54167    0.38413    1.000
    N4708    N        0.78468    0.57697    0.44368    1.000
    Si4709   Si       0.80483    0.59656    0.47718    1.000
    N4710    N        0.81704    0.65846    0.40499    1.000
    Si4711   Si       0.79995    0.69910    0.41224    1.000
    Si4712   Si       0.78983    0.67198    0.48056    1.000
    Si4713   Si       0.77333    0.73280    0.48107    1.000
    N4714    N        0.77157    0.69932    0.44715    1.000
    N4715    N        0.77224    0.69347    0.38010    1.000
    N4716    N        0.81548    0.57904    0.32471    1.000
    Si4717   Si       0.81146    0.52269    0.48026    1.000
    N4718    N        0.77804    0.58681    0.55727    1.000
    Si4719   Si       0.76895    0.62454    0.53410    1.000
    Si4720   Si       0.80723    0.57855    0.58702    1.000
    N4721    N        0.80491    0.61100    0.61677    1.000
    N4722    N        0.81108    0.54188    0.60711    1.000
    Si4723   Si       0.77510    0.64098    0.60761    1.000
    N4724    N        0.77173    0.65387    0.56561    1.000
    N4725    N        0.77846    0.70004    0.51194    1.000
    Si4726   Si       0.77631    0.69613    0.55516    1.000
    Si4727   Si       0.75486    0.75233    0.60183    1.000
    Si4728   Si       0.81384    0.70968    0.61554    1.000
    N4729    N        0.75275    0.51309    0.71769    1.000
    N4730    N        0.76508    0.57846    0.71671    1.000
    Si4731   Si       0.80356    0.56171    0.72974    1.000
    N4732    N        0.76685    0.71391    0.74471    1.000
    N4733    N        0.78776    0.74106    0.63089    1.000
    N4734    N        0.76948    0.64283    0.73952    1.000
    Si4735   Si       0.79055    0.67095    0.67179    1.000
    N4736    N        0.79178    0.67481    0.62803    1.000
    Si4737   Si       0.79968    0.73321    0.72074    1.000
    N4738    N        0.81047    0.70547    0.68800    1.000
    Si4739   Si       0.80988    0.63136    0.72707    1.000
    N4740    N        0.78920    0.63103    0.49571    1.000
    Si4741   Si       0.78490    0.57758    0.84540    1.000
    N4742    N        0.79910    0.54267    0.76861    1.000
    N4743    N        0.75896    0.54348    0.85060    1.000
    Si4744   Si       0.76486    0.51619    0.75997    1.000
    N4745    N        0.76082    0.60073    0.81779    1.000
    N4746    N        0.77707    0.66702    0.97359    1.000
    Si4747   Si       0.77172    0.64375    0.82067    1.000
    N4748    N        0.79956    0.70081    0.80610    1.000
    Si4749   Si       0.76959    0.72690    0.78620    1.000
    N4750    N        0.76956    0.66976    0.85888    1.000
    Si4751   Si       0.80096    0.70131    0.85104    1.000
    N4752    N        0.80124    0.74329    0.86429    1.000
    Si4753   Si       0.80301    0.51970    0.93385    1.000
    N4754    N        0.78865    0.59538    0.88367    1.000
    N4755    N        0.76760    0.60184    0.95062    1.000
    N4756    N        0.76247    0.53268    0.94081    1.000
    Si4757   Si       0.75770    0.56358    0.96860    1.000
    Si4758   Si       0.75202    0.60203    0.90927    1.000
    Si4759   Si       0.79581    0.62990    0.96756    1.000
    N4760    N        0.78709    0.73684    0.98412    1.000
    Si4761   Si       0.77811    0.70586    0.95425    1.000
    N4762    N        0.78063    0.86850    0.09621    1.000
    Si4763   Si       0.78494    0.85263    0.05338    1.000
    N4764    N        0.79776    0.87437    0.01532    1.000
    N4765    N        0.77016    0.94057    0.03214    1.000
    Si4766   Si       0.79254    0.98924    0.10303    1.000
    Si4767   Si       0.80380    0.91663    0.01612    1.000
    N4768    N        0.75365    0.97083    0.09685    1.000
    N4769    N        0.79466    0.85438    0.16517    1.000
    N4770    N        0.78243    0.78384    0.18097    1.000
    Si4771   Si       0.79723    0.82172    0.19488    1.000
    N4772    N        0.77320    0.82582    0.22995    1.000
    Si4773   Si       0.81290    0.85975    0.12542    1.000
    N4774    N        0.79033    0.97441    0.20564    1.000
    N4775    N        0.76288    0.91733    0.21023    1.000
    N4776    N        0.79370    0.00260    0.14450    1.000
    Si4777   Si       0.77113    0.89121    0.17299    1.000
    N4778    N        0.78635    0.92688    0.15215    1.000
    Si4779   Si       0.76453    0.95023    0.17996    1.000
    Si4780   Si       0.79579    0.94136    0.23836    1.000
    N4781    N        0.79467    0.84686    0.30044    1.000
    Si4782   Si       0.78737    0.76712    0.30474    1.000
    Si4783   Si       0.76510    0.83639    0.34007    1.000
    N4784    N        0.76665    0.79342    0.32847    1.000
    N4785    N        0.80517    0.83679    0.36163    1.000
    N4786    N        0.77507    0.76183    0.26242    1.000
    Si4787   Si       0.77807    0.88307    0.28461    1.000
    N4788    N        0.80968    0.00766    0.39536    1.000
    N4789    N        0.77022    0.90991    0.31889    1.000
    N4790    N        0.77599    0.96033    0.27398    1.000
    N4791    N        0.78577    0.96038    0.34950    1.000
    Si4792   Si       0.79656    0.94502    0.31060    1.000
    N4793    N        0.80488    0.90599    0.26275    1.000
    Si4794   Si       0.76024    0.92591    0.35811    1.000
    Si4795   Si       0.78967    0.00242    0.35712    1.000
    N4796    N        0.80592    0.86850    0.42626    1.000
    N4797    N        0.77532    0.77764    0.40684    1.000
    Si4798   Si       0.78387    0.85289    0.45941    1.000
    N4799    N        0.80222    0.76358    0.46853    1.000
    Si4800   Si       0.78599    0.98614    0.42734    1.000
    N4801    N        0.75438    0.90403    0.39672    1.000
    N4802    N        0.77012    0.89337    0.46899    1.000
    Si4803   Si       0.78233    0.90845    0.42901    1.000
    N4804    N        0.80426    0.94521    0.43752    1.000
    Si4805   Si       0.81275    0.77170    0.42596    1.000
    Si4806   Si       0.78626    0.80943    0.55140    1.000
    N4807    N        0.77252    0.78945    0.58812    1.000
    N4808    N        0.79434    0.84927    0.56385    1.000
    Si4809   Si       0.76919    0.82836    0.61152    1.000
    Si4810   Si       0.79113    0.89158    0.57132    1.000
    N4811    N        0.78623    0.97411    0.58322    1.000
    N4812    N        0.79526    0.97966    0.51991    1.000
    Si4813   Si       0.77408    0.95468    0.54871    1.000
    N4814    N        0.77242    0.91232    0.53676    1.000
    N4815    N        0.77278    0.91199    0.60584    1.000
    Si4816   Si       0.76558    0.95376    0.61686    1.000
    Si4817   Si       0.81074    0.00865    0.58379    1.000
    N4818    N        0.79743    0.85592    0.63142    1.000
    Si4819   Si       0.79192    0.80752    0.72403    1.000
    Si4820   Si       0.79262    0.77485    0.65787    1.000
    N4821    N        0.79074    0.77110    0.70056    1.000
    N4822    N        0.79955    0.84499    0.70257    1.000
    N4823    N        0.76041    0.80390    0.64974    1.000
    Si4824   Si       0.76006    0.86756    0.70596    1.000
    N4825    N        0.75450    0.81428    0.74451    1.000
    Si4826   Si       0.79441    0.89821    0.64055    1.000
    N4827    N        0.78531    0.94345    0.73127    1.000
    N4828    N        0.78120    0.95902    0.65756    1.000
    Si4829   Si       0.80972    0.99228    0.65901    1.000
    Si4830   Si       0.76426    0.93989    0.69235    1.000
    N4831    N        0.76972    0.89807    0.67699    1.000
    Si4832   Si       0.81252    0.97824    0.73362    1.000
    Si4833   Si       0.79622    0.84120    0.85062    1.000
    Si4834   Si       0.76793    0.80707    0.78630    1.000
    N4835    N        0.79273    0.83674    0.80748    1.000
    N4836    N        0.78481    0.76681    0.78634    1.000
    N4837    N        0.75705    0.86021    0.86133    1.000
    N4838    N        0.77248    0.92003    0.80407    1.000
    Si4839   Si       0.78023    0.91153    0.76122    1.000
    N4840    N        0.79569    0.97291    0.84936    1.000
    N4841    N        0.78724    0.98549    0.78909    1.000
    Si4842   Si       0.76318    0.95853    0.82342    1.000
    Si4843   Si       0.76421    0.00843    0.76324    1.000
    N4844    N        0.79546    0.81409    0.98560    1.000
    Si4845   Si       0.78245    0.85388    0.97596    1.000
    Si4846   Si       0.77964    0.77299    0.88523    1.000
    N4847    N        0.77046    0.77446    0.92735    1.000
    Si4848   Si       0.77550    0.77802    0.97072    1.000
    N4849    N        0.78940    0.86155    0.93270    1.000
    N4850    N        0.80696    0.80416    0.87411    1.000
    Si4851   Si       0.76161    0.94867    0.98907    1.000
    N4852    N        0.80143    0.93323    0.97679    1.000
    Si4853   Si       0.77957    0.99942    0.93825    1.000
    N4854    N        0.80669    0.97150    0.91781    1.000
    N4855    N        0.75131    0.98316    0.96854    1.000
    Si4856   Si       0.84704    0.03260    0.08365    1.000
    Si4857   Si       0.84830    0.06565    0.01559    1.000
    N4858    N        0.86216    0.06577    0.05543    1.000
    N4859    N        0.85638    0.13170    0.06126    1.000
    N4860    N        0.84405    0.05575    0.11950    1.000
    N4861    N        0.83274    0.19208    0.03499    1.000
    N4862    N        0.86762    0.25640    0.04536    1.000
    Si4863   Si       0.86916    0.17192    0.04992    1.000
    N4864    N        0.82927    0.12383    0.13347    1.000
    N4865    N        0.85144    0.02237    0.19129    1.000
    Si4866   Si       0.84886    0.03248    0.23487    1.000
    Si4867   Si       0.86341    0.04609    0.15715    1.000
    N4868    N        0.85396    0.07532    0.23596    1.000
    Si4869   Si       0.81165    0.08445    0.12306    1.000
    Si4870   Si       0.81755    0.09606    0.24598    1.000
    Si4871   Si       0.86575    0.24270    0.16199    1.000
    N4872    N        0.86299    0.20369    0.18355    1.000
    N4873    N        0.86884    0.14254    0.21199    1.000
    N4874    N        0.82159    0.25038    0.16841    1.000
    Si4875   Si       0.81985    0.20601    0.18250    1.000
    N4876    N        0.84007    0.10722    0.34180    1.000
    Si4877   Si       0.85610    0.02164    0.32997    1.000
    N4878    N        0.86004    0.04440    0.36875    1.000
    N4879    N        0.81421    0.01795    0.32310    1.000
    Si4880   Si       0.81551    0.11701    0.30606    1.000
    N4881    N        0.83002    0.13322    0.26857    1.000
    Si4882   Si       0.86026    0.22038    0.28951    1.000
    N4883    N        0.83931    0.19694    0.31819    1.000
    Si4884   Si       0.86288    0.18712    0.35319    1.000
    N4885    N        0.84630    0.19871    0.25454    1.000
    Si4886   Si       0.86012    0.15788    0.25257    1.000
    N4887    N        0.86308    0.22690    0.37094    1.000
    Si4888   Si       0.81952    0.23541    0.37070    1.000
    Si4889   Si       0.81370    0.04723    0.46823    1.000
    Si4890   Si       0.84768    0.02447    0.40472    1.000
    N4891    N        0.84595    0.05229    0.43894    1.000
    Si4892   Si       0.86961    0.13218    0.48462    1.000
    N4893    N        0.85657    0.20495    0.43720    1.000
    N4894    N        0.84802    0.25661    0.46933    1.000
    Si4895   Si       0.86007    0.16404    0.42094    1.000
    N4896    N        0.84131    0.14022    0.45265    1.000
    N4897    N        0.83730    0.16562    0.38285    1.000
    Si4898   Si       0.82099    0.22328    0.45405    1.000
    Si4899   Si       0.81570    0.13208    0.36498    1.000
    N4900    N        0.83417    0.03491    0.50333    1.000
    N4901    N        0.85624    0.06013    0.60897    1.000
    Si4902   Si       0.87272    0.05331    0.51553    1.000
    N4903    N        0.82125    0.17688    0.57227    1.000
    Si4904   Si       0.84896    0.17447    0.60532    1.000
    Si4905   Si       0.84330    0.18931    0.53242    1.000
    N4906    N        0.86849    0.15657    0.52336    1.000
    Si4907   Si       0.86533    0.25812    0.70531    1.000
    N4908    N        0.81802    0.20595    0.50050    1.000
    N4909    N        0.86231    0.05319    0.68411    1.000
    Si4910   Si       0.85765    0.06880    0.72338    1.000
    Si4911   Si       0.85260    0.07665    0.64857    1.000
    N4912    N        0.81503    0.08048    0.72225    1.000
    N4913    N        0.81241    0.09114    0.64524    1.000
    N4914    N        0.86396    0.02797    0.74098    1.000
    Si4915   Si       0.86950    0.01253    0.70014    1.000
    Si4916   Si       0.86007    0.14665    0.67188    1.000
    N4917    N        0.83048    0.16116    0.64162    1.000
    N4918    N        0.84367    0.14316    0.71025    1.000
    Si4919   Si       0.87009    0.13776    0.74430    1.000
    N4920    N        0.83860    0.22721    0.68413    1.000
    N4921    N        0.86897    0.21154    0.61686    1.000
    Si4922   Si       0.87402    0.21225    0.66266    1.000
    Si4923   Si       0.83922    0.10806    0.81333    1.000
    N4924    N        0.81526    0.12834    0.84715    1.000
    N4925    N        0.84052    0.13712    0.77606    1.000
    N4926    N        0.84713    0.20029    0.79231    1.000
    Si4927   Si       0.84465    0.21545    0.83317    1.000
    Si4928   Si       0.83017    0.24429    0.77364    1.000
    N4929    N        0.86784    0.24748    0.74962    1.000
    Si4930   Si       0.81409    0.17461    0.77132    1.000
    N4931    N        0.81720    0.03518    0.88155    1.000
    N4932    N        0.86649    0.03362    0.99392    1.000
    Si4933   Si       0.85033    0.06012    0.89437    1.000
    N4934    N        0.84467    0.10088    0.90568    1.000
    Si4935   Si       0.84898    0.01487    0.95709    1.000
    N4936    N        0.84660    0.10579    0.99617    1.000
    N4937    N        0.86941    0.03535    0.92400    1.000
    N4938    N        0.81977    0.22030    0.92128    1.000
    Si4939   Si       0.84675    0.19456    0.99381    1.000
    Si4940   Si       0.82681    0.17852    0.92799    1.000
    N4941    N        0.86471    0.17012    0.90953    1.000
    N4942    N        0.82510    0.16348    0.96911    1.000
    N4943    N        0.84490    0.23504    0.97709    1.000
    Si4944   Si       0.85247    0.24509    0.93414    1.000
    N4945    N        0.81157    0.07512    0.80673    1.000
    N4946    N        0.84518    0.25583    0.81603    1.000
    N4947    N        0.84215    0.35545    0.03716    1.000
    Si4948   Si       0.82625    0.26324    0.05802    1.000
    N4949    N        0.82262    0.30264    0.07252    1.000
    Si4950   Si       0.85459    0.34218    0.99804    1.000
    Si4951   Si       0.86664    0.38865    0.05576    1.000
    Si4952   Si       0.82255    0.50049    0.07242    1.000
    N4953    N        0.85550    0.47618    0.09049    1.000
    N4954    N        0.83777    0.42013    0.06066    1.000
    Si4955   Si       0.83293    0.44114    0.10030    1.000
    N4956    N        0.84120    0.41806    0.13687    1.000
    Si4957   Si       0.86967    0.31767    0.18728    1.000
    N4958    N        0.86371    0.35180    0.15754    1.000
    N4959    N        0.84606    0.29403    0.21737    1.000
    Si4960   Si       0.83882    0.37523    0.12825    1.000
    Si4961   Si       0.86588    0.50441    0.20340    1.000
    N4962    N        0.83978    0.47675    0.17930    1.000
    Si4963   Si       0.84959    0.40069    0.22419    1.000
    Si4964   Si       0.86510    0.44355    0.16617    1.000
    N4965    N        0.81491    0.38921    0.20254    1.000
    N4966    N        0.86899    0.36558    0.24157    1.000
    Si4967   Si       0.84759    0.28854    0.32246    1.000
    N4968    N        0.83045    0.32442    0.30379    1.000
    Si4969   Si       0.85956    0.34815    0.28050    1.000
    N4970    N        0.82493    0.27805    0.35542    1.000
    N4971    N        0.85246    0.26271    0.28413    1.000
    N4972    N        0.86912    0.38210    0.30612    1.000
    Si4973   Si       0.87534    0.28441    0.25044    1.000
    Si4974   Si       0.83526    0.41090    0.30268    1.000
    Si4975   Si       0.83839    0.48469    0.32669    1.000
    N4976    N        0.83783    0.42485    0.26076    1.000
    N4977    N        0.84094    0.44010    0.33246    1.000
    Si4978   Si       0.82391    0.46530    0.25644    1.000
    N4979    N        0.85498    0.49297    0.24413    1.000
    N4980    N        0.85965    0.37213    0.45210    1.000
    Si4981   Si       0.82433    0.34824    0.45833    1.000
    N4982    N        0.83463    0.31731    0.42499    1.000
    N4983    N        0.83022    0.32202    0.49342    1.000
    Si4984   Si       0.81578    0.30637    0.38733    1.000
    N4985    N        0.83628    0.39941    0.39629    1.000
    N4986    N        0.86253    0.47028    0.38770    1.000
    Si4987   Si       0.85745    0.42975    0.37042    1.000
    N4988    N        0.84101    0.45862    0.45055    1.000
    Si4989   Si       0.83346    0.48728    0.41912    1.000
    Si4990   Si       0.85204    0.30568    0.57229    1.000
    N4991    N        0.83801    0.34134    0.55416    1.000
    N4992    N        0.86426    0.28610    0.53316    1.000
    Si4993   Si       0.83433    0.27912    0.50216    1.000
    Si4994   Si       0.83570    0.37664    0.57915    1.000
    N4995    N        0.82015    0.29401    0.59917    1.000
    Si4996   Si       0.83614    0.47242    0.53613    1.000
    Si4997   Si       0.85983    0.44628    0.58674    1.000
    N4998    N        0.86295    0.40706    0.56661    1.000
    N4999    N        0.82461    0.47393    0.57830    1.000
    N5000    N        0.84045    0.50578    0.50981    1.000
    N5001    N        0.84809    0.37085    0.62164    1.000
    N5002    N        0.84852    0.29678    0.70127    1.000
    N5003    N        0.85868    0.41504    0.74446    1.000
    Si5004   Si       0.84065    0.43055    0.70668    1.000
    Si5005   Si       0.82012    0.39497    0.64332    1.000
    N5006    N        0.83810    0.49628    0.64977    1.000
    Si5007   Si       0.86210    0.46055    0.64685    1.000
    N5008    N        0.82346    0.39540    0.68667    1.000
    N5009    N        0.82995    0.43560    0.63093    1.000
    N5010    N        0.87355    0.45025    0.68733    1.000
    N5011    N        0.84562    0.32150    0.78746    1.000
    Si5012   Si       0.84095    0.29827    0.82360    1.000
    N5013    N        0.87039    0.31326    0.85186    1.000
    N5014    N        0.81205    0.43871    0.87455    1.000
    Si5015   Si       0.86077    0.41263    0.78829    1.000
    Si5016   Si       0.83229    0.40706    0.85328    1.000
    Si5017   Si       0.85364    0.48167    0.81943    1.000
    N5018    N        0.82409    0.41131    0.81033    1.000
    N5019    N        0.86790    0.47361    0.85885    1.000
    N5020    N        0.84282    0.28512    0.91925    1.000
    N5021    N        0.85961    0.35386    0.91444    1.000
    N5022    N        0.84676    0.37719    0.97302    1.000
    Si5023   Si       0.81885    0.36386    0.91115    1.000
    Si5024   Si       0.81630    0.26747    0.98868    1.000
    Si5025   Si       0.86805    0.31455    0.89688    1.000
    N5026    N        0.84303    0.30155    0.99449    1.000
    N5027    N        0.81204    0.43706    0.98991    1.000
    Si5028   Si       0.83453    0.46632    0.96795    1.000
    N5029    N        0.81649    0.50633    0.97461    1.000
    N5030    N        0.84658    0.46590    0.92754    1.000
    Si5031   Si       0.83359    0.47263    0.88771    1.000
    Si5032   Si       0.84921    0.56506    0.06288    1.000
    N5033    N        0.84833    0.52569    0.04425    1.000
    Si5034   Si       0.85216    0.62459    0.02095    1.000
    N5035    N        0.86678    0.56644    0.10165    1.000
    Si5036   Si       0.85292    0.51715    0.99930    1.000
    N5037    N        0.83391    0.63320    0.12179    1.000
    N5038    N        0.81083    0.61831    0.00629    1.000
    N5039    N        0.84254    0.69698    0.10388    1.000
    N5040    N        0.85262    0.66172    0.04310    1.000
    Si5041   Si       0.82234    0.67456    0.07047    1.000
    Si5042   Si       0.81883    0.73264    0.09742    1.000
    Si5043   Si       0.81477    0.73194    0.01805    1.000
    N5044    N        0.87025    0.61398    0.22727    1.000
    Si5045   Si       0.84618    0.57648    0.23218    1.000
    N5046    N        0.86436    0.54773    0.20359    1.000
    Si5047   Si       0.85023    0.59409    0.13277    1.000
    N5048    N        0.81651    0.57208    0.14403    1.000
    Si5049   Si       0.85860    0.66957    0.13211    1.000
    N5050    N        0.84662    0.66604    0.17420    1.000
    Si5051   Si       0.87416    0.63770    0.18995    1.000
    N5052    N        0.85071    0.55787    0.27038    1.000
    Si5053   Si       0.85490    0.58225    0.30716    1.000
    N5054    N        0.86271    0.62183    0.29717    1.000
    N5055    N        0.82007    0.51354    0.35392    1.000
    N5056    N        0.83087    0.67714    0.46752    1.000
    Si5057   Si       0.86233    0.64863    0.33019    1.000
    N5058    N        0.85424    0.72942    0.31483    1.000
    N5059    N        0.82566    0.67011    0.33587    1.000
    Si5060   Si       0.81702    0.70705    0.31250    1.000
    Si5061   Si       0.82382    0.56793    0.42849    1.000
    N5062    N        0.83320    0.57320    0.38731    1.000
    N5063    N        0.82726    0.52524    0.43902    1.000
    N5064    N        0.84126    0.60432    0.45093    1.000
    Si5065   Si       0.86159    0.70208    0.48387    1.000
    N5066    N        0.82757    0.73278    0.41387    1.000
    Si5067   Si       0.86940    0.72917    0.41225    1.000
    Si5068   Si       0.84253    0.64701    0.43763    1.000
    Si5069   Si       0.87215    0.58697    0.37689    1.000
    N5070    N        0.83716    0.76428    0.24576    1.000
    N5071    N        0.84748    0.58197    0.57142    1.000
    Si5072   Si       0.85551    0.54855    0.51706    1.000
    N5073    N        0.81420    0.56269    0.50175    1.000
    N5074    N        0.85829    0.73283    0.51387    1.000
    Si5075   Si       0.84912    0.73190    0.55682    1.000
    N5076    N        0.86241    0.64834    0.56154    1.000
    N5077    N        0.81431    0.70844    0.57164    1.000
    N5078    N        0.81035    0.63470    0.68395    1.000
    Si5079   Si       0.86174    0.54508    0.69738    1.000
    Si5080   Si       0.84474    0.53746    0.63217    1.000
    N5081    N        0.83062    0.59648    0.73599    1.000
    N5082    N        0.84735    0.57104    0.66294    1.000
    Si5083   Si       0.83267    0.61045    0.65213    1.000
    N5084    N        0.82024    0.53145    0.70443    1.000
    N5085    N        0.86344    0.63321    0.63158    1.000
    N5086    N        0.86678    0.74414    0.69440    1.000
    N5087    N        0.85364    0.71460    0.63319    1.000
    Si5088   Si       0.85136    0.70899    0.67488    1.000
    Si5089   Si       0.86446    0.61809    0.59048    1.000
    Si5090   Si       0.84660    0.60897    0.81852    1.000
    Si5091   Si       0.82172    0.53555    0.80535    1.000
    N5092    N        0.82438    0.57005    0.82943    1.000
    N5093    N        0.86036    0.51804    0.79499    1.000
    N5094    N        0.87057    0.63009    0.84892    1.000
    Si5095   Si       0.82894    0.67323    0.78956    1.000
    N5096    N        0.81382    0.63731    0.81108    1.000
    N5097    N        0.86750    0.68177    0.80712    1.000
    N5098    N        0.83375    0.73842    0.74907    1.000
    N5099    N        0.83559    0.65908    0.74949    1.000
    N5100    N        0.82456    0.55813    0.93389    1.000
    Si5101   Si       0.82355    0.59552    0.91031    1.000
    Si5102   Si       0.86843    0.55614    0.93318    1.000
    N5103    N        0.83409    0.68420    0.87137    1.000
    Si5104   Si       0.83409    0.67177    0.91191    1.000
    Si5105   Si       0.84444    0.73251    0.95594    1.000
    N5106    N        0.81722    0.70479    0.93542    1.000
    N5107    N        0.84653    0.71106    0.99628    1.000
    N5108    N        0.82493    0.63278    0.93297    1.000
    Si5109   Si       0.84572    0.80655    0.07776    1.000
    N5110    N        0.83954    0.76962    0.09938    1.000
    Si5111   Si       0.82681    0.80748    0.01307    1.000
    N5112    N        0.83821    0.76710    0.02656    1.000
    N5113    N        0.84338    0.83015    0.11617    1.000
    N5114    N        0.86383    0.82226    0.99683    1.000
    N5115    N        0.81598    0.82241    0.05159    1.000
    N5116    N        0.84618    0.95833    0.16583    1.000
    N5117    N        0.83787    0.92934    0.03893    1.000
    Si5118   Si       0.85450    0.95723    0.06839    1.000
    N5119    N        0.82431    0.96000    0.10017    1.000
    N5120    N        0.84036    0.89405    0.12176    1.000
    Si5121   Si       0.85261    0.79122    0.13470    1.000
    Si5122   Si       0.86013    0.79085    0.21996    1.000
    N5123    N        0.83952    0.82834    0.20662    1.000
    N5124    N        0.84622    0.76866    0.17264    1.000
    Si5125   Si       0.86837    0.85789    0.21859    1.000
    Si5126   Si       0.82632    0.93351    0.13355    1.000
    Si5127   Si       0.86773    0.93767    0.19834    1.000
    Si5128   Si       0.82199    0.99109    0.17896    1.000
    N5129    N        0.84093    0.94346    0.23184    1.000
    N5130    N        0.82687    0.78570    0.30792    1.000
    Si5131   Si       0.82467    0.82561    0.32373    1.000
    N5132    N        0.86406    0.84514    0.31994    1.000
    N5133    N        0.86682    0.87791    0.25559    1.000
    Si5134   Si       0.85707    0.76166    0.28533    1.000
    Si5135   Si       0.83900    0.93596    0.46650    1.000
    N5136    N        0.83922    0.93566    0.30708    1.000
    Si5137   Si       0.84838    0.91820    0.26842    1.000
    N5138    N        0.81502    0.83326    0.48101    1.000
    Si5139   Si       0.84971    0.85841    0.48868    1.000
    Si5140   Si       0.82794    0.84378    0.39824    1.000
    N5141    N        0.83841    0.80425    0.41552    1.000
    N5142    N        0.86479    0.86405    0.38915    1.000
    Si5143   Si       0.82899    0.79156    0.48867    1.000
    N5144    N        0.87044    0.78911    0.47167    1.000
    N5145    N        0.85673    0.96956    0.49020    1.000
    Si5146   Si       0.85513    0.80977    0.55497    1.000
    N5147    N        0.81954    0.79286    0.53177    1.000
    N5148    N        0.86039    0.85041    0.53046    1.000
    N5149    N        0.86583    0.82296    0.59501    1.000
    Si5150   Si       0.85889    0.78675    0.62067    1.000
    Si5151   Si       0.85863    0.89427    0.53610    1.000
    Si5152   Si       0.85847    0.91591    0.60042    1.000
    N5153    N        0.83383    0.90671    0.56702    1.000
    Si5154   Si       0.83538    0.99383    0.51939    1.000
    N5155    N        0.84694    0.00162    0.56002    1.000
    Si5156   Si       0.82006    0.83814    0.66388    1.000
    N5157    N        0.85288    0.86301    0.67561    1.000
    Si5158   Si       0.83709    0.86911    0.71770    1.000
    N5159    N        0.82887    0.79816    0.65092    1.000
    N5160    N        0.83472    0.91335    0.63667    1.000
    N5161    N        0.83224    0.99826    0.62085    1.000
    Si5162   Si       0.86271    0.90571    0.66972    1.000
    N5163    N        0.85016    0.91192    0.71132    1.000
    N5164    N        0.83566    0.98686    0.69398    1.000
    Si5165   Si       0.86815    0.99287    0.59786    1.000
    N5166    N        0.84839    0.76331    0.58570    1.000
    N5167    N        0.86597    0.85196    0.74767    1.000
    N5168    N        0.83969    0.90156    0.49394    1.000
    Si5169   Si       0.82785    0.85010    0.77935    1.000
    Si5170   Si       0.83001    0.77370    0.77374    1.000
    N5171    N        0.85716    0.86502    0.80932    1.000
    Si5172   Si       0.83497    0.77176    0.85382    1.000
    N5173    N        0.84967    0.76969    0.81410    1.000
    N5174    N        0.82123    0.81160    0.75602    1.000
    N5175    N        0.82296    0.87098    0.86851    1.000
    Si5176   Si       0.82028    0.99072    0.87990    1.000
    N5177    N        0.81696    0.88723    0.75909    1.000
    Si5178   Si       0.85131    0.92043    0.75328    1.000
    Si5179   Si       0.84917    0.89354    0.84332    1.000
    N5180    N        0.84671    0.93597    0.82892    1.000
    Si5181   Si       0.82389    0.97148    0.81265    1.000
    N5182    N        0.84432    0.96421    0.76058    1.000
    N5183    N        0.85225    0.00478    0.80935    1.000
    N5184    N        0.86216    0.98430    0.86917    1.000
    Si5185   Si       0.84252    0.79977    0.90723    1.000
    N5186    N        0.85637    0.83899    0.91562    1.000
    Si5187   Si       0.82620    0.87169    0.91381    1.000
    N5188    N        0.84551    0.77624    0.94474    1.000
    N5189    N        0.86867    0.78390    0.87752    1.000
    N5190    N        0.84186    0.91169    0.92168    1.000
    N5191    N        0.85963    0.97315    0.95750    1.000
    Si5192   Si       0.82708    0.94433    0.94509    1.000
    N5193    N        0.89944    0.09667    0.10387    1.000
    N5194    N        0.90950    0.11248    0.02490    1.000
    Si5195   Si       0.88750    0.10046    0.06178    1.000
    Si5196   Si       0.92047    0.05882    0.10979    1.000
    N5197    N        0.89495    0.19187    0.07690    1.000
    Si5198   Si       0.90233    0.23189    0.05964    1.000
    N5199    N        0.88419    0.17046    0.00746    1.000
    N5200    N        0.92373    0.22916    0.02098    1.000
    Si5201   Si       0.92415    0.18924    0.00138    1.000
    Si5202   Si       0.90766    0.18889    0.12012    1.000
    N5203    N        0.89979    0.02860    0.14197    1.000
    N5204    N        0.92373    0.10119    0.21343    1.000
    Si5205   Si       0.87998    0.09898    0.20890    1.000
    N5206    N        0.87528    0.08603    0.16747    1.000
    Si5207   Si       0.87310    0.11578    0.13378    1.000
    Si5208   Si       0.88822    0.16824    0.18352    1.000
    N5209    N        0.88987    0.15487    0.14265    1.000
    N5210    N        0.89456    0.22920    0.13218    1.000
    N5211    N        0.92789    0.17141    0.20088    1.000
    Si5212   Si       0.92965    0.14033    0.23213    1.000
    Si5213   Si       0.90754    0.01972    0.99350    1.000
    Si5214   Si       0.90715    0.03575    0.28289    1.000
    N5215    N        0.90897    0.10246    0.35915    1.000
    N5216    N        0.87694    0.05337    0.30900    1.000
    N5217    N        0.88212    0.01056    0.25844    1.000
    Si5218   Si       0.87418    0.07966    0.34561    1.000
    N5219    N        0.89849    0.17146    0.33802    1.000
    N5220    N        0.90366    0.21781    0.28881    1.000
    N5221    N        0.90329    0.15218    0.26662    1.000
    Si5222   Si       0.91681    0.17832    0.29876    1.000
    Si5223   Si       0.91196    0.14531    0.37049    1.000
    Si5224   Si       0.88369    0.06109    0.45899    1.000
    N5225    N        0.91840    0.07668    0.43560    1.000
    N5226    N        0.89567    0.03025    0.48635    1.000
    N5227    N        0.89971    0.15515    0.40900    1.000
    N5228    N        0.91928    0.24885    0.45534    1.000
    Si5229   Si       0.87816    0.24257    0.44167    1.000
    Si5230   Si       0.93267    0.15887    0.43575    1.000
    N5231    N        0.90969    0.14319    0.47012    1.000
    Si5232   Si       0.93144    0.24308    0.26633    1.000
    N5233    N        0.93077    0.03022    0.37762    1.000
    N5234    N        0.87557    0.09027    0.49075    1.000
    Si5235   Si       0.89604    0.05382    0.59244    1.000
    N5236    N        0.89748    0.05779    0.54988    1.000
    N5237    N        0.92142    0.08126    0.61360    1.000
    N5238    N        0.90544    0.01196    0.60582    1.000
    Si5239   Si       0.90446    0.11988    0.61875    1.000
    N5240    N        0.92391    0.11893    0.54721    1.000
    N5241    N        0.87995    0.14716    0.59558    1.000
    Si5242   Si       0.90331    0.21854    0.59037    1.000
    Si5243   Si       0.89926    0.15443    0.55453    1.000
    N5244    N        0.92611    0.18719    0.56647    1.000
    Si5245   Si       0.89571    0.25414    0.53707    1.000
    N5246    N        0.89890    0.24490    0.67954    1.000
    N5247    N        0.87603    0.11320    0.65159    1.000
    N5248    N        0.88421    0.09770    0.74476    1.000
    N5249    N        0.89287    0.17611    0.67253    1.000
    N5250    N        0.87314    0.21962    0.54618    1.000
    Si5251   Si       0.90338    0.09020    0.85180    1.000
    Si5252   Si       0.91002    0.09407    0.78048    1.000
    N5253    N        0.88258    0.10164    0.81330    1.000
    N5254    N        0.91772    0.01492    0.82698    1.000
    Si5255   Si       0.87827    0.01629    0.84380    1.000
    N5256    N        0.87815    0.05658    0.86167    1.000
    N5257    N        0.91802    0.23760    0.78677    1.000
    Si5258   Si       0.88346    0.21011    0.76829    1.000
    N5259    N        0.88493    0.20981    0.84873    1.000
    Si5260   Si       0.91918    0.23066    0.83121    1.000
    N5261    N        0.89594    0.17215    0.75234    1.000
    N5262    N        0.90728    0.11991    0.88498    1.000
    Si5263   Si       0.91177    0.03421    0.92217    1.000
    N5264    N        0.89757    0.12849    0.95233    1.000
    Si5265   Si       0.87727    0.13084    0.91321    1.000
    Si5266   Si       0.88250    0.12925    0.99484    1.000
    N5267    N        0.93255    0.20911    0.96260    1.000
    Si5268   Si       0.89177    0.19679    0.89250    1.000
    N5269    N        0.88915    0.23652    0.91142    1.000
    N5270    N        0.90031    0.31418    0.03454    1.000
    Si5271   Si       0.91791    0.35022    0.01718    1.000
    Si5272   Si       0.88021    0.28211    0.01104    1.000
    Si5273   Si       0.91898    0.30529    0.07178    1.000
    N5274    N        0.90936    0.31356    0.11285    1.000
    N5275    N        0.92648    0.26255    0.08226    1.000
    N5276    N        0.87099    0.36960    0.09616    1.000
    N5277    N        0.90402    0.38726    0.03496    1.000
    Si5278   Si       0.89738    0.47047    0.10027    1.000
    N5279    N        0.91342    0.43406    0.08406    1.000
    Si5280   Si       0.92908    0.47879    0.16812    1.000
    Si5281   Si       0.91016    0.27250    0.13191    1.000
    N5282    N        0.90715    0.32069    0.20763    1.000
    Si5283   Si       0.89537    0.35122    0.12776    1.000
    N5284    N        0.87934    0.28347    0.16252    1.000
    N5285    N        0.90775    0.25910    0.23456    1.000
    Si5286   Si       0.91182    0.35025    0.24152    1.000
    Si5287   Si       0.91891    0.42611    0.21681    1.000
    N5288    N        0.89646    0.46661    0.14375    1.000
    N5289    N        0.90942    0.49403    0.20453    1.000
    N5290    N        0.87833    0.42402    0.20196    1.000
    Si5291   Si       0.92900    0.28237    0.20371    1.000
    Si5292   Si       0.91476    0.30797    0.30983    1.000
    N5293    N        0.88964    0.31764    0.27383    1.000
    N5294    N        0.88761    0.28717    0.33853    1.000
    N5295    N        0.92699    0.34330    0.33736    1.000
    Si5296   Si       0.93183    0.41582    0.39979    1.000
    Si5297   Si       0.90404    0.38342    0.33291    1.000
    N5298    N        0.93312    0.44961    0.25226    1.000
    N5299    N        0.87438    0.50449    0.31401    1.000
    N5300    N        0.89409    0.40491    0.37093    1.000
    Si5301   Si       0.89182    0.25971    0.37240    1.000
    Si5302   Si       0.92852    0.28501    0.47829    1.000
    N5303    N        0.88382    0.27593    0.41109    1.000
    N5304    N        0.89484    0.31063    0.47216    1.000
    N5305    N        0.89610    0.34453    0.40568    1.000
    Si5306   Si       0.87792    0.31454    0.43048    1.000
    Si5307   Si       0.89465    0.39129    0.47128    1.000
    Si5308   Si       0.88381    0.45187    0.45532    1.000
    N5309    N        0.88704    0.42977    0.49127    1.000
    N5310    N        0.89716    0.49022    0.44085    1.000
    N5311    N        0.89823    0.41597    0.43150    1.000
    Si5312   Si       0.90091    0.48401    0.39883    1.000
    Si5313   Si       0.87366    0.38307    0.41070    1.000
    N5314    N        0.88404    0.31859    0.59691    1.000
    Si5315   Si       0.91867    0.30351    0.57326    1.000
    N5316    N        0.91609    0.32605    0.53620    1.000
    N5317    N        0.88471    0.37202    0.51192    1.000
    Si5318   Si       0.87675    0.32790    0.51207    1.000
    Si5319   Si       0.90473    0.47687    0.70332    1.000
    N5320    N        0.91346    0.25963    0.57746    1.000
    Si5321   Si       0.88795    0.41506    0.53210    1.000
    Si5322   Si       0.90596    0.49592    0.54131    1.000
    N5323    N        0.88934    0.46058    0.61389    1.000
    N5324    N        0.87729    0.46246    0.54720    1.000
    N5325    N        0.92502    0.50238    0.50259    1.000
    Si5326   Si       0.92993    0.46848    0.60494    1.000
    N5327    N        0.92695    0.39863    0.54940    1.000
    N5328    N        0.92040    0.37093    0.62425    1.000
    Si5329   Si       0.88304    0.32185    0.70746    1.000
    Si5330   Si       0.88442    0.34713    0.62877    1.000
    N5331    N        0.89686    0.33730    0.66811    1.000
    N5332    N        0.88499    0.35160    0.73800    1.000
    N5333    N        0.91176    0.29284    0.72353    1.000
    Si5334   Si       0.89751    0.39568    0.73423    1.000
    N5335    N        0.92167    0.39375    0.69807    1.000
    N5336    N        0.91208    0.30603    0.79218    1.000
    Si5337   Si       0.91213    0.30736    0.83608    1.000
    Si5338   Si       0.90212    0.27316    0.76242    1.000
    Si5339   Si       0.88414    0.34079    0.77973    1.000
    N5340    N        0.92285    0.26879    0.85400    1.000
    N5341    N        0.88304    0.37915    0.80015    1.000
    Si5342   Si       0.90521    0.38199    0.83561    1.000
    Si5343   Si       0.91474    0.45886    0.77526    1.000
    Si5344   Si       0.89753    0.44131    0.85930    1.000
    N5345    N        0.92433    0.42143    0.75669    1.000
    N5346    N        0.87860    0.45244    0.79748    1.000
    N5347    N        0.87419    0.40407    0.86102    1.000
    N5348    N        0.92876    0.41952    0.83530    1.000
    Si5349   Si       0.91970    0.26469    0.89780    1.000
    Si5350   Si       0.88373    0.37616    0.94819    1.000
    N5351    N        0.90702    0.27527    0.97741    1.000
    Si5352   Si       0.91404    0.31197    0.95506    1.000
    N5353    N        0.90706    0.30318    0.91314    1.000
    N5354    N        0.89789    0.34533    0.97832    1.000
    N5355    N        0.92370    0.37704    0.92224    1.000
    N5356    N        0.92250    0.44803    0.89467    1.000
    N5357    N        0.89907    0.41990    0.95925    1.000
    N5358    N        0.92640    0.48344    0.96465    1.000
    Si5359   Si       0.90367    0.45403    0.98768    1.000
    Si5360   Si       0.92973    0.42046    0.92839    1.000
    N5361    N        0.92911    0.34730    0.84073    1.000
    N5362    N        0.86909    0.47674    0.99544    1.000
    N5363    N        0.90513    0.48927    0.74476    1.000
    Si5364   Si       0.90314    0.54540    0.10845    1.000
    Si5365   Si       0.91569    0.59456    0.04923    1.000
    N5366    N        0.87468    0.59330    0.03998    1.000
    N5367    N        0.92764    0.63697    0.05766    1.000
    N5368    N        0.89366    0.72031    0.04760    1.000
    Si5369   Si       0.87557    0.69106    0.01994    1.000
    Si5370   Si       0.89708    0.56729    0.18550    1.000
    N5371    N        0.91138    0.54684    0.15009    1.000
    N5372    N        0.87944    0.60144    0.16534    1.000
    N5373    N        0.90301    0.66136    0.12514    1.000
    N5374    N        0.91238    0.65966    0.19193    1.000
    Si5375   Si       0.91987    0.68485    0.15737    1.000
    N5376    N        0.89563    0.71934    0.16082    1.000
    N5377    N        0.91933    0.50780    0.09144    1.000
    N5378    N        0.91676    0.52276    0.26587    1.000
    Si5379   Si       0.89131    0.62310    0.26290    1.000
    Si5380   Si       0.90420    0.53104    0.33613    1.000
    N5381    N        0.91702    0.59036    0.27235    1.000
    N5382    N        0.88047    0.56710    0.33913    1.000
    Si5383   Si       0.87356    0.52018    0.27308    1.000
    N5384    N        0.89385    0.67582    0.32305    1.000
    N5385    N        0.91889    0.65650    0.26034    1.000
    N5386    N        0.91721    0.74142    0.34581    1.000
    Si5387   Si       0.88452    0.71284    0.34164    1.000
    Si5388   Si       0.92906    0.67288    0.29871    1.000
    N5389    N        0.90019    0.76045    0.27798    1.000
    N5390    N        0.87618    0.62943    0.36801    1.000
    N5391    N        0.89688    0.57844    0.41350    1.000
    N5392    N        0.90885    0.52077    0.37899    1.000
    N5393    N        0.91579    0.61157    0.47538    1.000
    Si5394   Si       0.88342    0.59084    0.45420    1.000
    Si5395   Si       0.90432    0.52226    0.47010    1.000
    N5396    N        0.87807    0.55534    0.47964    1.000
    N5397    N        0.88506    0.65090    0.43328    1.000
    Si5398   Si       0.92793    0.54823    0.40877    1.000
    Si5399   Si       0.92759    0.75366    0.38590    1.000
    N5400    N        0.88694    0.71818    0.45038    1.000
    Si5401   Si       0.93097    0.72080    0.45444    1.000
    Si5402   Si       0.90731    0.65237    0.47015    1.000
    Si5403   Si       0.89758    0.66103    0.39273    1.000
    N5404    N        0.92957    0.75038    0.48755    1.000
    N5405    N        0.88034    0.70029    0.38306    1.000
    Si5406   Si       0.93194    0.75140    0.30458    1.000
    N5407    N        0.90547    0.60068    0.58987    1.000
    N5408    N        0.88578    0.53539    0.54669    1.000
    Si5409   Si       0.88478    0.55965    0.58072    1.000
    N5410    N        0.88413    0.53663    0.61621    1.000
    N5411    N        0.92228    0.75035    0.72201    1.000
    N5412    N        0.88443    0.71030    0.57374    1.000
    Si5413   Si       0.89331    0.67569    0.54804    1.000
    N5414    N        0.88863    0.67389    0.50404    1.000
    Si5415   Si       0.89259    0.72185    0.61543    1.000
    Si5416   Si       0.91530    0.52712    0.64659    1.000
    N5417    N        0.88116    0.55390    0.73462    1.000
    N5418    N        0.89476    0.51803    0.68295    1.000
    N5419    N        0.89697    0.62891    0.74070    1.000
    N5420    N        0.92571    0.62613    0.65759    1.000
    N5421    N        0.91304    0.68893    0.63540    1.000
    Si5422   Si       0.87365    0.66420    0.72994    1.000
    Si5423   Si       0.89334    0.65553    0.65428    1.000
    Si5424   Si       0.88004    0.74030    0.73543    1.000
    N5425    N        0.87309    0.67211    0.68747    1.000
    Si5426   Si       0.89243    0.52483    0.76542    1.000
    N5427    N        0.90076    0.57070    0.85678    1.000
    Si5428   Si       0.91425    0.57701    0.81497    1.000
    N5429    N        0.87907    0.59112    0.79464    1.000
    N5430    N        0.92582    0.53874    0.79240    1.000
    Si5431   Si       0.87166    0.59397    0.75116    1.000
    Si5432   Si       0.90503    0.69414    0.78752    1.000
    N5433    N        0.91186    0.73344    0.80779    1.000
    N5434    N        0.90122    0.70245    0.86662    1.000
    N5435    N        0.89113    0.69996    0.74703    1.000
    Si5436   Si       0.87084    0.67383    0.85004    1.000
    Si5437   Si       0.93072    0.72662    0.84604    1.000
    N5438    N        0.90189    0.53341    0.91648    1.000
    Si5439   Si       0.89460    0.60940    0.87739    1.000
    Si5440   Si       0.91482    0.52385    0.95789    1.000
    Si5441   Si       0.92234    0.54352    0.87996    1.000
    N5442    N        0.87901    0.54105    0.97524    1.000
    N5443    N        0.91873    0.62375    0.94723    1.000
    Si5444   Si       0.87338    0.62840    0.94249    1.000
    N5445    N        0.87439    0.63487    0.98644    1.000
    N5446    N        0.87006    0.59547    0.91278    1.000
    N5447    N        0.91004    0.68915    0.99194    1.000
    N5448    N        0.87737    0.66194    0.91387    1.000
    N5449    N        0.88490    0.72335    0.93921    1.000
    Si5450   Si       0.91525    0.72738    0.97468    1.000
    Si5451   Si       0.90332    0.69675    0.91020    1.000
    Si5452   Si       0.91804    0.64695    0.98297    1.000
    Si5453   Si       0.88783    0.84543    0.02806    1.000
    N5454    N        0.88370    0.79748    0.06049    1.000
    Si5455   Si       0.88102    0.76157    0.03568    1.000
    Si5456   Si       0.92797    0.80384    0.06491    1.000
    N5457    N        0.87089    0.89348    0.18987    1.000
    N5458    N        0.87425    0.86752    0.06540    1.000
    Si5459   Si       0.89170    0.75859    0.17027    1.000
    N5460    N        0.88779    0.88586    0.00629    1.000
    N5461    N        0.89176    0.93449    0.06557    1.000
    N5462    N        0.92007    0.98702    0.02096    1.000
    Si5463   Si       0.91223    0.00288    0.06173    1.000
    Si5464   Si       0.87264    0.90323    0.04307    1.000
    N5465    N        0.86995    0.99807    0.07033    1.000
    Si5466   Si       0.90899    0.87909    0.17147    1.000
    N5467    N        0.89743    0.79009    0.14058    1.000
    N5468    N        0.91188    0.84945    0.20516    1.000
    N5469    N        0.90528    0.85882    0.13242    1.000
    N5470    N        0.89905    0.77027    0.21083    1.000
    N5471    N        0.90517    0.95523    0.20699    1.000
    Si5472   Si       0.92816    0.82108    0.13730    1.000
    Si5473   Si       0.87053    0.86646    0.10821    1.000
    Si5474   Si       0.88760    0.86464    0.35247    1.000
    Si5475   Si       0.88436    0.84828    0.28252    1.000
    N5476    N        0.88451    0.81573    0.25261    1.000
    N5477    N        0.92588    0.85584    0.28978    1.000
    N5478    N        0.92514    0.83875    0.35608    1.000
    Si5479   Si       0.91672    0.78609    0.24718    1.000
    Si5480   Si       0.88215    0.94429    0.31917    1.000
    N5481    N        0.88965    0.93837    0.27356    1.000
    N5482    N        0.89423    0.90683    0.34369    1.000
    N5483    N        0.87568    0.98374    0.34102    1.000
    Si5484   Si       0.92968    0.92392    0.36410    1.000
    Si5485   Si       0.90388    0.97166    0.24889    1.000
    N5486    N        0.92823    0.95068    0.32251    1.000
    N5487    N        0.89018    0.76685    0.40214    1.000
    N5488    N        0.87811    0.85829    0.45712    1.000
    Si5489   Si       0.88056    0.80095    0.42884    1.000
    Si5490   Si       0.91759    0.84283    0.46446    1.000
    N5491    N        0.91942    0.82031    0.42761    1.000
    N5492    N        0.87140    0.92657    0.43621    1.000
    Si5493   Si       0.89912    0.95860    0.42640    1.000
    Si5494   Si       0.90289    0.99663    0.37455    1.000
    N5495    N        0.92116    0.96812    0.46224    1.000
    N5496    N        0.87673    0.99419    0.41213    1.000
    N5497    N        0.92279    0.95931    0.38978    1.000
    Si5498   Si       0.88364    0.88608    0.42249    1.000
    N5499    N        0.92273    0.89567    0.40129    1.000
    N5500    N        0.89118    0.78988    0.53806    1.000
    Si5501   Si       0.89761    0.84822    0.60672    1.000
    Si5502   Si       0.88910    0.76364    0.50213    1.000
    N5503    N        0.93046    0.83662    0.50560    1.000
    N5504    N        0.89432    0.89030    0.60627    1.000
    N5505    N        0.91623    0.98290    0.53407    1.000
    Si5506   Si       0.91200    0.94800    0.55983    1.000
    N5507    N        0.89753    0.91191    0.54046    1.000
    N5508    N        0.88324    0.95205    0.59463    1.000
    N5509    N        0.89586    0.92789    0.65967    1.000
    Si5510   Si       0.89699    0.98664    0.49324    1.000
    N5511    N        0.89741    0.81180    0.69943    1.000
    N5512    N        0.89371    0.76599    0.63687    1.000
    Si5513   Si       0.89987    0.76913    0.68396    1.000
    Si5514   Si       0.88971    0.81573    0.74058    1.000
    N5515    N        0.92529    0.82710    0.63380    1.000
    Si5516   Si       0.91770    0.92605    0.62095    1.000
    N5517    N        0.90524    0.99378    0.68971    1.000
    Si5518   Si       0.92084    0.95397    0.68066    1.000
    N5519    N        0.92868    0.84520    0.57361    1.000
    Si5520   Si       0.92648    0.81541    0.54232    1.000
    Si5521   Si       0.93044    0.88751    0.56132    1.000
    N5522    N        0.91236    0.80242    0.82305    1.000
    Si5523   Si       0.89196    0.77018    0.80212    1.000
    Si5524   Si       0.89043    0.87012    0.78278    1.000
    N5525    N        0.88100    0.77864    0.76024    1.000
    Si5526   Si       0.90929    0.79837    0.86616    1.000
    Si5527   Si       0.92150    0.87646    0.85879    1.000
    N5528    N        0.92723    0.87244    0.81456    1.000
    N5529    N        0.92499    0.83421    0.76328    1.000
    N5530    N        0.89047    0.91254    0.77084    1.000
    N5531    N        0.91264    0.98409    0.76636    1.000
    Si5532   Si       0.88032    0.94648    0.85680    1.000
    Si5533   Si       0.92055    0.93974    0.75739    1.000
    N5534    N        0.88660    0.90163    0.86671    1.000
    N5535    N        0.92192    0.95580    0.84462    1.000
    Si5536   Si       0.87089    0.99635    0.76883    1.000
    N5537    N        0.91533    0.83978    0.88087    1.000
    Si5538   Si       0.89931    0.84153    0.92078    1.000
    N5539    N        0.91214    0.80588    0.94446    1.000
    Si5540   Si       0.87855    0.79283    0.96923    1.000
    N5541    N        0.90372    0.88048    0.93728    1.000
    Si5542   Si       0.90024    0.96505    0.94597    1.000
    Si5543   Si       0.88459    0.90863    0.90973    1.000
    Si5544   Si       0.91699    0.89477    0.97511    1.000
    N5545    N        0.92051    0.93859    0.97132    1.000
    N5546    N        0.91715    0.00518    0.95456    1.000
    N5547    N        0.90795    0.94696    0.90807    1.000
    N5548    N        0.89642    0.76278    0.99412    1.000
    N5549    N        0.97371    0.09072    0.04404    1.000
    Si5550   Si       0.95234    0.12005    0.01802    1.000
    Si5551   Si       0.96140    0.04866    0.04214    1.000
    N5552    N        0.93847    0.04834    0.00351    1.000
    Si5553   Si       0.97999    0.25418    0.15917    1.000
    N5554    N        0.92961    0.04463    0.07091    1.000
    N5555    N        0.95377    0.16374    0.01999    1.000
    Si5556   Si       0.96796    0.24501    0.08043    1.000
    N5557    N        0.96968    0.20307    0.07203    1.000
    Si5558   Si       0.98274    0.19766    0.11376    1.000
    N5559    N        0.98637    0.24039    0.11981    1.000
    Si5560   Si       0.94954    0.06776    0.22206    1.000
    N5561    N        0.95349    0.05660    0.13625    1.000
    N5562    N        0.95008    0.02758    0.20298    1.000
    Si5563   Si       0.93809    0.02352    0.16052    1.000
    N5564    N        0.97941    0.22159    0.18698    1.000
    N5565    N        0.94870    0.18580    0.13678    1.000
    N5566    N        0.97302    0.14376    0.24499    1.000
    Si5567   Si       0.96146    0.18118    0.17740    1.000
    N5568    N        0.99077    0.14617    0.18071    1.000
    N5569    N        0.97045    0.08096    0.32981    1.000
    Si5570   Si       0.95752    0.04097    0.34063    1.000
    N5571    N        0.93527    0.01878    0.31087    1.000
    Si5572   Si       0.95197    0.10162    0.36304    1.000
    N5573    N        0.93433    0.05864    0.25989    1.000
    N5574    N        0.96279    0.17694    0.30599    1.000
    N5575    N        0.96410    0.21820    0.25470    1.000
    Si5576   Si       0.98473    0.16674    0.34087    1.000
    Si5577   Si       0.98098    0.17973    0.26700    1.000
    N5578    N        0.95621    0.14513    0.36627    1.000
    N5579    N        0.94938    0.19673    0.42688    1.000
    Si5580   Si       0.94378    0.05154    0.41233    1.000
    N5581    N        0.97246    0.07930    0.39232    1.000
    N5582    N        0.95669    0.02648    0.44446    1.000
    Si5583   Si       0.93544    0.10685    0.46389    1.000
    N5584    N        0.96429    0.13181    0.44038    1.000
    Si5585   Si       0.95932    0.21442    0.38965    1.000
    N5586    N        0.93191    0.24316    0.37471    1.000
    N5587    N        0.98237    0.22485    0.48577    1.000
    N5588    N        0.98072    0.25278    0.41617    1.000
    Si5589   Si       0.95898    0.23236    0.45096    1.000
    N5590    N        0.96338    0.04924    0.55622    1.000
    N5591    N        0.98733    0.09089    0.61115    1.000
    Si5592   Si       0.93433    0.07888    0.53624    1.000
    N5593    N        0.93908    0.14436    0.63333    1.000
    N5594    N        0.97870    0.23304    0.56103    1.000
    Si5595   Si       0.96991    0.18766    0.56284    1.000
    Si5596   Si       0.97507    0.25070    0.51992    1.000
    N5597    N        0.95800    0.20236    0.68444    1.000
    Si5598   Si       0.95590    0.25537    0.59514    1.000
    Si5599   Si       0.98146    0.13364    0.62241    1.000
    Si5600   Si       0.97286    0.11404    0.69585    1.000
    N5601    N        0.96612    0.02779    0.64386    1.000
    N5602    N        0.96022    0.07711    0.67896    1.000
    Si5603   Si       0.97817    0.03778    0.68592    1.000
    Si5604   Si       0.95862    0.06974    0.63636    1.000
    N5605    N        0.97000    0.01445    0.72199    1.000
    Si5606   Si       0.98589    0.20009    0.71890    1.000
    N5607    N        0.94342    0.14423    0.70805    1.000
    Si5608   Si       0.94047    0.23912    0.66673    1.000
    N5609    N        0.93649    0.22850    0.62477    1.000
    Si5610   Si       0.93485    0.16595    0.67336    1.000
    Si5611   Si       0.93683    0.15886    0.75030    1.000
    N5612    N        0.95181    0.08432    0.49576    1.000
    Si5613   Si       0.97201    0.09019    0.76785    1.000
    N5614    N        0.94558    0.07908    0.84126    1.000
    Si5615   Si       0.94427    0.01639    0.75808    1.000
    N5616    N        0.94145    0.12387    0.77722    1.000
    Si5617   Si       0.94862    0.03694    0.84791    1.000
    Si5618   Si       0.98372    0.10364    0.83788    1.000
    N5619    N        0.93928    0.05957    0.76483    1.000
    N5620    N        0.95599    0.20930    0.82803    1.000
    Si5621   Si       0.96181    0.22319    0.78499    1.000
    N5622    N        0.97750    0.14311    0.85444    1.000
    N5623    N        0.96425    0.19068    0.75767    1.000
    N5624    N        0.98839    0.18076    0.95025    1.000
    N5625    N        0.93918    0.02596    0.88838    1.000
    N5626    N        0.96209    0.10945    0.97648    1.000
    Si5627   Si       0.96029    0.06642    0.97153    1.000
    Si5628   Si       0.93433    0.11120    0.93878    1.000
    N5629    N        0.96718    0.13044    0.91734    1.000
    Si5630   Si       0.97698    0.01048    0.89932    1.000
    N5631    N        0.93125    0.06763    0.93902    1.000
    N5632    N        0.93246    0.18343    0.89971    1.000
    N5633    N        0.95654    0.24847    0.91497    1.000
    Si5634   Si       0.93826    0.24717    0.98266    1.000
    Si5635   Si       0.95870    0.20567    0.92495    1.000
    Si5636   Si       0.94402    0.14522    0.88343    1.000
    Si5637   Si       0.98748    0.18725    0.84744    1.000
    N5638    N        0.95105    0.33544    0.07140    1.000
    Si5639   Si       0.97885    0.35889    0.04921    1.000
    N5640    N        0.96098    0.35295    0.00998    1.000
    Si5641   Si       0.95103    0.33105    0.11534    1.000
    N5642    N        0.97684    0.48987    0.06623    1.000
    N5643    N        0.97423    0.40061    0.06055    1.000
    Si5644   Si       0.95898    0.48316    0.02451    1.000
    Si5645   Si       0.93339    0.41648    0.05019    1.000
    N5646    N        0.93104    0.45061    0.02156    1.000
    N5647    N        0.94078    0.27426    0.16299    1.000
    Si5648   Si       0.97078    0.36303    0.22980    1.000
    Si5649   Si       0.97787    0.36257    0.15755    1.000
    N5650    N        0.97035    0.28140    0.22344    1.000
    N5651    N        0.97874    0.33963    0.19366    1.000
    N5652    N        0.93613    0.36504    0.13841    1.000
    Si5653   Si       0.98801    0.43540    0.18457    1.000
    N5654    N        0.97587    0.50669    0.23499    1.000
    N5655    N        0.94495    0.44033    0.18552    1.000
    Si5656   Si       0.93555    0.49182    0.24147    1.000
    N5657    N        0.93254    0.38357    0.22143    1.000
    N5658    N        0.96072    0.50810    0.15951    1.000
    N5659    N        0.99115    0.26749    0.05295    1.000
    Si5660   Si       0.96756    0.29897    0.26355    1.000
    N5661    N        0.95240    0.33842    0.25882    1.000
    N5662    N        0.93964    0.27917    0.29007    1.000
    Si5663   Si       0.96459    0.37002    0.33551    1.000
    Si5664   Si       0.96007    0.47196    0.35651    1.000
    Si5665   Si       0.94838    0.43580    0.29188    1.000
    N5666    N        0.94082    0.46628    0.31994    1.000
    N5667    N        0.93986    0.39838    0.31238    1.000
    N5668    N        0.98666    0.50523    0.36100    1.000
    N5669    N        0.95773    0.31477    0.39891    1.000
    Si5670   Si       0.96252    0.27443    0.38258    1.000
    N5671    N        0.96923    0.30150    0.46756    1.000
    N5672    N        0.95199    0.38269    0.37610    1.000
    Si5673   Si       0.98818    0.31774    0.43060    1.000
    N5674    N        0.93721    0.38307    0.48064    1.000
    Si5675   Si       0.97409    0.39144    0.46087    1.000
    N5676    N        0.96585    0.41674    0.42843    1.000
    N5677    N        0.99111    0.49097    0.46980    1.000
    Si5678   Si       0.93096    0.34344    0.38185    1.000
    N5679    N        0.93181    0.45821    0.38672    1.000
    N5680    N        0.95907    0.30340    0.58899    1.000
    N5681    N        0.97705    0.35408    0.52130    1.000
    N5682    N        0.97832    0.37192    0.58620    1.000
    N5683    N        0.93342    0.26307    0.51664    1.000
    Si5684   Si       0.98027    0.49427    0.55212    1.000
    Si5685   Si       0.94125    0.39259    0.59193    1.000
    N5686    N        0.95083    0.43126    0.60671    1.000
    N5687    N        0.93935    0.48675    0.56777    1.000
    N5688    N        0.96287    0.27535    0.67638    1.000
    N5689    N        0.96274    0.34081    0.69087    1.000
    Si5690   Si       0.95224    0.30264    0.70909    1.000
    Si5691   Si       0.93340    0.36413    0.66767    1.000
    Si5692   Si       0.96837    0.48522    0.67203    1.000
    N5693    N        0.98628    0.40895    0.72939    1.000
    N5694    N        0.94391    0.45981    0.69554    1.000
    Si5695   Si       0.98784    0.42352    0.63046    1.000
    Si5696   Si       0.95768    0.41921    0.69796    1.000
    N5697    N        0.97324    0.39601    0.66098    1.000
    N5698    N        0.94150    0.49476    0.63940    1.000
    Si5699   Si       0.93171    0.36644    0.52021    1.000
    N5700    N        0.97282    0.29536    0.74726    1.000
    N5701    N        0.95860    0.36091    0.77137    1.000
    Si5702   Si       0.97312    0.34308    0.84307    1.000
    Si5703   Si       0.95752    0.31916    0.78073    1.000
    N5704    N        0.97910    0.31054    0.81582    1.000
    Si5705   Si       0.96665    0.47616    0.95591    1.000
    N5706    N        0.96799    0.43630    0.94191    1.000
    N5707    N        0.94675    0.47409    0.79912    1.000
    Si5708   Si       0.96300    0.40319    0.76498    1.000
    Si5709   Si       0.96459    0.44344    0.82356    1.000
    N5710    N        0.98280    0.45663    0.86126    1.000
    N5711    N        0.98587    0.41814    0.79835    1.000
    Si5712   Si       0.95238    0.47900    0.88719    1.000
    Si5713   Si       0.96029    0.35239    0.91912    1.000
    N5714    N        0.95740    0.31943    0.95171    1.000
    N5715    N        0.97935    0.33067    0.88412    1.000
    Si5716   Si       0.98462    0.34679    0.97630    1.000
    N5717    N        0.98037    0.25864    0.98489    1.000
    N5718    N        0.98846    0.47891    0.99417    1.000
    N5719    N        0.97114    0.49972    0.91993    1.000
    Si5720   Si       0.96969    0.58209    0.10098    1.000
    Si5721   Si       0.95330    0.52738    0.07168    1.000
    N5722    N        0.94725    0.59097    0.02078    1.000
    N5723    N        0.96982    0.62525    0.10694    1.000
    Si5724   Si       0.96381    0.55545    0.00189    1.000
    N5725    N        0.94387    0.52499    0.02627    1.000
    Si5726   Si       0.96179    0.63216    0.03100    1.000
    N5727    N        0.93028    0.56879    0.08211    1.000
    N5728    N        0.96851    0.72065    0.02189    1.000
    N5729    N        0.94835    0.69470    0.08593    1.000
    Si5730   Si       0.93778    0.72039    0.05309    1.000
    Si5731   Si       0.97795    0.70738    0.11377    1.000
    Si5732   Si       0.93536    0.65484    0.09653    1.000
    N5733    N        0.93799    0.56744    0.20355    1.000
    N5734    N        0.97880    0.57022    0.14211    1.000
    Si5735   Si       0.97080    0.58600    0.22477    1.000
    Si5736   Si       0.95086    0.54982    0.16659    1.000
    N5737    N        0.97028    0.62867    0.21092    1.000
    Si5738   Si       0.94100    0.66005    0.22237    1.000
    N5739    N        0.96115    0.69934    0.15345    1.000
    Si5740   Si       0.98239    0.70855    0.19148    1.000
    N5741    N        0.96707    0.69292    0.22910    1.000
    N5742    N        0.99216    0.74627    0.10801    1.000
    N5743    N        0.98837    0.75057    0.19157    1.000
    Si5744   Si       0.97727    0.54576    0.35059    1.000
    N5745    N        0.94351    0.54558    0.32346    1.000
    N5746    N        0.97771    0.57122    0.26655    1.000
    Si5747   Si       0.94037    0.55586    0.28040    1.000
    N5748    N        0.95280    0.64548    0.32325    1.000
    N5749    N        0.94848    0.71174    0.29541    1.000
    Si5750   Si       0.98049    0.70679    0.26647    1.000
    Si5751   Si       0.97107    0.65492    0.36088    1.000
    Si5752   Si       0.96365    0.65635    0.43016    1.000
    N5753    N        0.93989    0.54448    0.45379    1.000
    Si5754   Si       0.95065    0.58586    0.46665    1.000
    N5755    N        0.96234    0.56303    0.38760    1.000
    N5756    N        0.96606    0.61334    0.43596    1.000
    Si5757   Si       0.96311    0.51747    0.48432    1.000
    N5758    N        0.94194    0.67783    0.46065    1.000
    Si5759   Si       0.98936    0.71218    0.40070    1.000
    N5760    N        0.94056    0.65874    0.39158    1.000
    N5761    N        0.95018    0.72789    0.41580    1.000
    N5762    N        0.96691    0.61680    0.60223    1.000
    N5763    N        0.95570    0.59018    0.53867    1.000
    Si5764   Si       0.93946    0.61542    0.56755    1.000
    N5765    N        0.98190    0.52435    0.52354    1.000
    N5766    N        0.93961    0.74055    0.60848    1.000
    Si5767   Si       0.96870    0.68504    0.56248    1.000
    N5768    N        0.96237    0.72312    0.54636    1.000
    N5769    N        0.98176    0.69046    0.60687    1.000
    Si5770   Si       0.96324    0.75541    0.51452    1.000
    N5771    N        0.93224    0.65925    0.55871    1.000
    Si5772   Si       0.96821    0.75812    0.57923    1.000
    N5773    N        0.97702    0.58563    0.69371    1.000
    N5774    N        0.94069    0.56133    0.64248    1.000
    Si5775   Si       0.95930    0.62334    0.68363    1.000
    Si5776   Si       0.98070    0.55705    0.66039    1.000
    Si5777   Si       0.93293    0.59915    0.62504    1.000
    N5778    N        0.96342    0.71265    0.67481    1.000
    Si5779   Si       0.98498    0.67987    0.69447    1.000
    Si5780   Si       0.96073    0.74770    0.69927    1.000
    N5781    N        0.95584    0.65432    0.71488    1.000
    Si5782   Si       0.95244    0.70551    0.63450    1.000
    N5783    N        0.98737    0.52142    0.68319    1.000
    N5784    N        0.95519    0.59215    0.82616    1.000
    N5785    N        0.96899    0.60441    0.75990    1.000
    Si5786   Si       0.96753    0.59829    0.86808    1.000
    Si5787   Si       0.95482    0.51325    0.81631    1.000
    N5788    N        0.94053    0.51062    0.85831    1.000
    Si5789   Si       0.93829    0.63770    0.75249    1.000
    Si5790   Si       0.97322    0.67607    0.80610    1.000
    N5791    N        0.96954    0.70750    0.83544    1.000
    N5792    N        0.93723    0.66578    0.78538    1.000
    N5793    N        0.95874    0.56353    0.89339    1.000
    N5794    N        0.94942    0.54758    0.96314    1.000
    Si5795   Si       0.97381    0.54379    0.92718    1.000
    N5796    N        0.93425    0.62490    0.88197    1.000
    N5797    N        0.94309    0.68498    0.91971    1.000
    N5798    N        0.96037    0.64918    0.99204    1.000
    Si5799   Si       0.94591    0.64243    0.91941    1.000
    Si5800   Si       0.97366    0.71437    0.93052    1.000
    N5801    N        0.95150    0.74199    0.95468    1.000
    Si5802   Si       0.98661    0.60704    0.80002    1.000
    N5803    N        0.94978    0.81072    0.10144    1.000
    Si5804   Si       0.96196    0.84079    0.00990    1.000
    Si5805   Si       0.97753    0.76746    0.02145    1.000
    N5806    N        0.94158    0.76430    0.05250    1.000
    Si5807   Si       0.98646    0.78782    0.09591    1.000
    N5808    N        0.92921    0.83610    0.03769    1.000
    N5809    N        0.95167    0.92162    0.10354    1.000
    N5810    N        0.96102    0.93179    0.03209    1.000
    N5811    N        0.93944    0.97898    0.08487    1.000
    Si5812   Si       0.93479    0.93773    0.06692    1.000
    Si5813   Si       0.96640    0.96565    0.11719    1.000
    Si5814   Si       0.94798    0.96005    0.00072    1.000
    N5815    N        0.95959    0.82558    0.16911    1.000
    Si5816   Si       0.95215    0.83560    0.21010    1.000
    N5817    N        0.95699    0.79837    0.23438    1.000
    N5818    N        0.97685    0.85987    0.23647    1.000
    N5819    N        0.94058    0.90744    0.17089    1.000
    Si5820   Si       0.94205    0.95013    0.18370    1.000
    N5821    N        0.94853    0.98233    0.15428    1.000
    N5822    N        0.97818    0.95696    0.20771    1.000
    Si5823   Si       0.96966    0.90287    0.13851    1.000
    Si5824   Si       0.97036    0.99734    0.22634    1.000
    N5825    N        0.95576    0.79004    0.30515    1.000
    Si5826   Si       0.94721    0.83054    0.32001    1.000
    Si5827   Si       0.96191    0.87355    0.27395    1.000
    N5828    N        0.98429    0.85381    0.30687    1.000
    N5829    N        0.97334    0.91507    0.35655    1.000
    Si5830   Si       0.94993    0.97991    0.29985    1.000
    N5831    N        0.94594    0.98283    0.25811    1.000
    N5832    N        0.97453    0.91519    0.27626    1.000
    Si5833   Si       0.98559    0.92618    0.31615    1.000
    Si5834   Si       0.94592    0.82401    0.39163    1.000
    N5835    N        0.95898    0.78354    0.37832    1.000
    N5836    N        0.97808    0.85082    0.40370    1.000
    N5837    N        0.94580    0.87614    0.46019    1.000
    Si5838   Si       0.96579    0.86720    0.49674    1.000
    Si5839   Si       0.95703    0.99049    0.46708    1.000
    N5840    N        0.98712    0.91785    0.42093    1.000
    Si5841   Si       0.95874    0.88654    0.42052    1.000
    N5842    N        0.98994    0.96949    0.31530    1.000
    N5843    N        0.95822    0.78703    0.54694    1.000
    Si5844   Si       0.96258    0.83792    0.60339    1.000
    N5845    N        0.97198    0.79358    0.61118    1.000
    Si5846   Si       0.97322    0.91977    0.72202    1.000
    N5847    N        0.95003    0.95745    0.64505    1.000
    N5848    N        0.96389    0.88741    0.53404    1.000
    Si5849   Si       0.98314    0.94789    0.58688    1.000
    N5850    N        0.96259    0.98666    0.58229    1.000
    N5851    N        0.94317    0.92565    0.58494    1.000
    N5852    N        0.97225    0.00020    0.50672    1.000
    N5853    N        0.93290    0.93416    0.71689    1.000
    Si5854   Si       0.94498    0.99680    0.62179    1.000
    Si5855   Si       0.93275    0.82153    0.67667    1.000
    N5856    N        0.94475    0.77873    0.67277    1.000
    Si5857   Si       0.95902    0.84828    0.73920    1.000
    N5858    N        0.95643    0.85275    0.69458    1.000
    Si5859   Si       0.93550    0.77902    0.63007    1.000
    Si5860   Si       0.95426    0.00745    0.54587    1.000
    Si5861   Si       0.93870    0.82938    0.80336    1.000
    N5862    N        0.98015    0.83016    0.81047    1.000
    N5863    N        0.97987    0.76280    0.79257    1.000
    N5864    N        0.93853    0.76525    0.86734    1.000
    N5865    N        0.96718    0.88821    0.75144    1.000
    Si5866   Si       0.95802    0.89558    0.79462    1.000
    N5867    N        0.95043    0.93813    0.78758    1.000
    Si5868   Si       0.93290    0.97737    0.80714    1.000
    N5869    N        0.97028    0.00180    0.79237    1.000
    Si5870   Si       0.97910    0.76935    0.88503    1.000
    Si5871   Si       0.95201    0.78550    0.95339    1.000
    N5872    N        0.97963    0.79344    0.92220    1.000
    N5873    N        0.95594    0.87614    0.98372    1.000
    Si5874   Si       0.94303    0.94555    0.88163    1.000
    N5875    N        0.97452    0.96863    0.90097    1.000
    N5876    N        0.98222    0.97237    0.97427    1.000
    N5877    N        0.95353    0.90319    0.87445    1.000
    N5878    N        0.98767    0.91146    0.93153    1.000
    N5879    N        0.96611    0.80018    0.99359    1.000
