# CIF file generated by openbabel 3.1.1, see https://openbabel.org
data_I
_chemical_name_common '3.01-31.aims'
_cell_length_a 39.9101
_cell_length_b 39.9101
_cell_length_c 39.9101
_cell_angle_alpha 90
_cell_angle_beta 90
_cell_angle_gamma 90
loop_
    _atom_site_label
    _atom_site_type_symbol
    _atom_site_fract_x
    _atom_site_fract_y
    _atom_site_fract_z
    _atom_site_occupancy
    Si0      Si       0.03836    0.04748    0.08880    1.000
    N1       N        0.08233    0.03985    0.01700    1.000
    Si2      Si       0.09660    0.05691    0.05452    1.000
    N3       N        0.00242    0.04293    0.02308    1.000
    Si4      Si       0.04299    0.02394    0.02292    1.000
    N5       N        0.99754    0.05442    0.09534    1.000
    N6       N        0.04664    0.01134    0.06553    1.000
    N7       N        0.11324    0.03603    0.08809    1.000
    N8       N        0.18214    0.05240    0.04789    1.000
    N9       N        0.20319    0.04828    0.11832    1.000
    Si10     Si       0.19056    0.01112    0.04038    1.000
    Si11     Si       0.09904    0.04640    0.12794    1.000
    N12      N        0.05598    0.05512    0.12642    1.000
    N13      N        0.99279    0.04614    0.15887    1.000
    Si14     Si       0.00746    0.02045    0.18979    1.000
    N15      N        0.08515    0.04085    0.23602    1.000
    N16      N        0.01494    0.03740    0.23046    1.000
    Si17     Si       0.05141    0.01369    0.23322    1.000
    N18      N        0.10314    0.01260    0.15478    1.000
    N19      N        0.16608    0.04105    0.17338    1.000
    Si20     Si       0.20446    0.05951    0.16077    1.000
    N21      N        0.19968    0.04629    0.23514    1.000
    N22      N        0.03660    0.03038    0.33602    1.000
    Si23     Si       0.07999    0.04325    0.32646    1.000
    Si24     Si       0.99638    0.03811    0.32095    1.000
    N25      N        0.09109    0.03505    0.36657    1.000
    N26      N        0.09861    0.01531    0.29956    1.000
    Si27     Si       0.11812    0.02983    0.26207    1.000
    Si28     Si       0.18007    0.04776    0.29935    1.000
    N29      N        0.17493    0.05113    0.34314    1.000
    Si30     Si       0.20853    0.03397    0.36502    1.000
    N31      N        0.14361    0.06248    0.27966    1.000
    Si32     Si       0.02353    0.05058    0.45112    1.000
    N33      N        0.09588    0.03678    0.43863    1.000
    N34      N        0.03892    0.01508    0.47332    1.000
    N35      N        0.99226    0.04269    0.42349    1.000
    Si36     Si       0.11492    0.04200    0.47754    1.000
    N37      N        0.20407    0.03315    0.40832    1.000
    Si38     Si       0.22261    0.04728    0.44476    1.000
    N39      N        0.19356    0.06328    0.47058    1.000
    N40      N        0.23356    0.01731    0.47641    1.000
    Si41     Si       0.11559    0.03699    0.40135    1.000
    Si42     Si       0.19000    0.02553    0.49412    1.000
    N43      N        0.09999    0.04532    0.57853    1.000
    Si44     Si       0.05508    0.02516    0.51473    1.000
    Si45     Si       0.00705    0.03350    0.57690    1.000
    N46      N        0.01655    0.03516    0.53467    1.000
    N47      N        0.08414    0.05665    0.50680    1.000
    Si48     Si       0.07481    0.01722    0.59879    1.000
    Si49     Si       0.13586    0.04100    0.55202    1.000
    N50      N        0.14559    0.03001    0.50955    1.000
    N51      N        0.21284    0.03550    0.53335    1.000
    N52      N        0.20692    0.03039    0.59512    1.000
    Si53     Si       0.20576    0.06429    0.56677    1.000
    N54      N        0.06995    0.04660    0.63328    1.000
    N55      N        0.00518    0.02984    0.66892    1.000
    N56      N        0.05289    0.04512    0.70294    1.000
    Si57     Si       0.08836    0.04766    0.72748    1.000
    Si58     Si       0.01122    0.03283    0.71443    1.000
    Si59     Si       0.04006    0.05429    0.66248    1.000
    Si60     Si       0.22552    0.01765    0.73706    1.000
    Si61     Si       0.13536    0.03342    0.66832    1.000
    N62      N        0.19151    0.04625    0.73505    1.000
    N63      N        0.18094    0.02579    0.66315    1.000
    Si64     Si       0.20917    0.04797    0.63565    1.000
    N65      N        0.12685    0.04773    0.70807    1.000
    N66      N        0.13281    0.06615    0.63889    1.000
    N67      N        0.04473    0.04448    0.81936    1.000
    Si68     Si       0.07441    0.04263    0.85239    1.000
    N69      N        0.08878    0.01689    0.75838    1.000
    Si70     Si       0.06470    0.01365    0.79647    1.000
    N71      N        0.09553    0.01241    0.82868    1.000
    N72      N        0.14572    0.06019    0.98803    1.000
    Si73     Si       0.18921    0.04592    0.77849    1.000
    Si74     Si       0.21350    0.04374    0.85581    1.000
    N75      N        0.14706    0.03626    0.79007    1.000
    Si76     Si       0.13835    0.03043    0.83169    1.000
    N77      N        0.17184    0.05299    0.85177    1.000
    N78      N        0.22279    0.01899    0.78108    1.000
    Si79     Si       0.03315    0.05736    0.91899    1.000
    Si80     Si       0.10601    0.03269    0.91336    1.000
    Si81     Si       0.10268    0.05360    0.98199    1.000
    N82      N        0.00122    0.04765    0.88965    1.000
    N83      N        0.06655    0.04111    0.89455    1.000
    N84      N        0.02089    0.04179    0.95667    1.000
    N85      N        0.09536    0.02137    0.95383    1.000
    Si86     Si       0.16828    0.05215    0.95075    1.000
    N87      N        0.21922    0.04546    0.89857    1.000
    Si88     Si       0.04092    0.10444    0.03655    1.000
    N89      N        0.99952    0.10516    0.04762    1.000
    N90      N        0.05956    0.07554    0.06320    1.000
    N91      N        0.12616    0.08198    0.13289    1.000
    N92      N        0.19039    0.10935    0.01136    1.000
    N93      N        0.12628    0.09058    0.04996    1.000
    N94      N        0.17996    0.11140    0.08939    1.000
    Si95     Si       0.16082    0.08118    0.02372    1.000
    Si96     Si       0.13697    0.10284    0.09477    1.000
    Si97     Si       0.20274    0.07299    0.08237    1.000
    Si98     Si       0.07863    0.07878    0.21659    1.000
    N99      N        0.04492    0.08463    0.18887    1.000
    Si100    Si       0.02364    0.11095    0.21812    1.000
    Si101    Si       0.02602    0.07643    0.15028    1.000
    N102     N        0.01224    0.11424    0.13314    1.000
    Si103    Si       0.14619    0.08071    0.17257    1.000
    N104     N        0.11877    0.09138    0.20360    1.000
    N105     N        0.20821    0.11975    0.23680    1.000
    N106     N        0.18639    0.09842    0.17181    1.000
    N107     N        0.24356    0.08346    0.07266    1.000
    Si108    Si       0.04500    0.09571    0.28767    1.000
    N109     N        0.08099    0.07918    0.30396    1.000
    N110     N        0.99559    0.09403    0.36256    1.000
    N111     N        0.00632    0.06969    0.28978    1.000
    Si112    Si       0.12073    0.09854    0.29222    1.000
    Si113    Si       0.15978    0.08567    0.36075    1.000
    N114     N        0.13340    0.10775    0.33363    1.000
    N115     N        0.21582    0.07447    0.29301    1.000
    N116     N        0.19281    0.11202    0.36348    1.000
    Si117    Si       0.21851    0.08006    0.24983    1.000
    N118     N        0.03528    0.08340    0.42401    1.000
    Si119    Si       0.05764    0.11835    0.43686    1.000
    N120     N        0.00092    0.07263    0.48014    1.000
    N121     N        0.06398    0.12112    0.48122    1.000
    Si122    Si       0.99385    0.08305    0.40470    1.000
    N123     N        0.09532    0.12339    0.41624    1.000
    N124     N        0.12875    0.08411    0.47011    1.000
    N125     N        0.13796    0.07331    0.39667    1.000
    Si126    Si       0.17100    0.10066    0.47308    1.000
    Si127    Si       0.13040    0.10094    0.42803    1.000
    N128     N        0.16446    0.12299    0.43748    1.000
    N129     N        0.05450    0.10312    0.24627    1.000
    N130     N        0.13934    0.12725    0.26449    1.000
    N131     N        0.07949    0.10790    0.60093    1.000
    Si132    Si       0.03739    0.10449    0.61255    1.000
    N133     N        0.01195    0.07675    0.59133    1.000
    Si134    Si       0.09679    0.09782    0.50048    1.000
    Si135    Si       0.09835    0.07158    0.61295    1.000
    N136     N        0.11687    0.11384    0.53541    1.000
    Si137    Si       0.16017    0.11573    0.54164    1.000
    N138     N        0.23077    0.09938    0.56839    1.000
    N139     N        0.16442    0.07282    0.55691    1.000
    N140     N        0.03684    0.09714    0.65676    1.000
    N141     N        0.00242    0.07339    0.74076    1.000
    N142     N        0.19888    0.08983    0.63058    1.000
    Si143    Si       0.16134    0.07300    0.72089    1.000
    N144     N        0.16836    0.10000    0.68900    1.000
    Si145    Si       0.15988    0.09891    0.64477    1.000
    Si146    Si       0.22602    0.12338    0.63618    1.000
    N147     N        0.18186    0.12620    0.50488    1.000
    N148     N        0.09431    0.12607    0.68135    1.000
    N149     N        0.05061    0.09694    0.85594    1.000
    Si150    Si       0.10583    0.11167    0.76906    1.000
    Si151    Si       0.02328    0.08099    0.82352    1.000
    N152     N        0.03414    0.11190    0.79287    1.000
    Si153    Si       0.09176    0.11143    0.84958    1.000
    Si154    Si       0.03651    0.09751    0.75205    1.000
    N155     N        0.10618    0.11149    0.81044    1.000
    N156     N        0.07873    0.08298    0.75002    1.000
    Si157    Si       0.22495    0.10290    0.81470    1.000
    N158     N        0.19336    0.08662    0.79343    1.000
    Si159    Si       0.17702    0.11808    0.76989    1.000
    N160     N        0.14431    0.09910    0.75069    1.000
    N161     N        0.18605    0.10729    0.88876    1.000
    Si162    Si       0.03257    0.11956    0.88844    1.000
    N163     N        0.03720    0.09932    0.92751    1.000
    N164     N        0.09288    0.08856    0.95965    1.000
    Si165    Si       0.05772    0.11108    0.96210    1.000
    Si166    Si       0.00223    0.07107    0.98652    1.000
    Si167    Si       0.21773    0.08638    0.91183    1.000
    N168     N        0.13851    0.06488    0.91846    1.000
    Si169    Si       0.12012    0.10437    0.92976    1.000
    N170     N        0.20322    0.07947    0.95233    1.000
    Si171    Si       0.22391    0.10112    0.98499    1.000
    N172     N        0.11752    0.12036    0.88577    1.000
    Si173    Si       0.14958    0.08318    0.87749    1.000
    N174     N        0.11256    0.06621    0.85525    1.000
    N175     N        0.03511    0.09813    0.99489    1.000
    N176     N        0.24125    0.07382    0.84211    1.000
    N177     N        0.98669    0.11664    0.88880    1.000
    Si178    Si       0.04560    0.16785    0.01203    1.000
    N179     N        0.00085    0.16744    0.01623    1.000
    N180     N        0.06474    0.13835    0.03985    1.000
    Si181    Si       0.10785    0.13084    0.04648    1.000
    N182     N        0.11557    0.14020    0.08734    1.000
    Si183    Si       0.19811    0.15107    0.08817    1.000
    N184     N        0.20167    0.16514    0.04586    1.000
    N185     N        0.13163    0.14816    0.01484    1.000
    Si186    Si       0.17494    0.15100    0.01376    1.000
    Si187    Si       0.12875    0.17716    0.10715    1.000
    N188     N        0.20717    0.16764    0.16651    1.000
    N189     N        0.99128    0.17799    0.14693    1.000
    N190     N        0.02540    0.15048    0.20153    1.000
    N191     N        0.09310    0.15566    0.20780    1.000
    Si192    Si       0.02283    0.15172    0.15682    1.000
    N193     N        0.06072    0.17460    0.14782    1.000
    Si194    Si       0.05543    0.17347    0.22292    1.000
    Si195    Si       0.09596    0.17914    0.17042    1.000
    Si196    Si       0.20390    0.13060    0.19278    1.000
    Si197    Si       0.16654    0.17711    0.17325    1.000
    Si198    Si       0.12442    0.13029    0.21896    1.000
    N199     N        0.16308    0.14947    0.20871    1.000
    N200     N        0.13229    0.16645    0.14846    1.000
    N201     N        0.23556    0.14508    0.10996    1.000
    N202     N        0.16926    0.18516    0.09515    1.000
    Si203    Si       0.06747    0.16373    0.30621    1.000
    N204     N        0.10703    0.17311    0.32644    1.000
    N205     N        0.03969    0.13132    0.31320    1.000
    Si206    Si       0.00618    0.12980    0.34125    1.000
    N207     N        0.06103    0.17748    0.26496    1.000
    N208     N        0.01174    0.16169    0.36982    1.000
    Si209    Si       0.14001    0.15028    0.34149    1.000
    Si210    Si       0.20785    0.15215    0.35621    1.000
    N211     N        0.17640    0.16818    0.33001    1.000
    Si212    Si       0.17589    0.14817    0.25151    1.000
    N213     N        0.19563    0.18426    0.26469    1.000
    N214     N        0.23548    0.13426    0.45765    1.000
    N215     N        0.09895    0.18244    0.44780    1.000
    Si216    Si       0.10464    0.16584    0.40719    1.000
    N217     N        0.03726    0.15716    0.43468    1.000
    Si218    Si       0.99867    0.15770    0.41270    1.000
    N219     N        0.14227    0.15940    0.38637    1.000
    Si220    Si       0.21610    0.15287    0.49339    1.000
    N221     N        0.21206    0.16584    0.39758    1.000
    Si222    Si       0.17512    0.15823    0.41523    1.000
    N223     N        0.05652    0.14256    0.54692    1.000
    Si224    Si       0.02921    0.16369    0.57288    1.000
    N225     N        0.01627    0.14346    0.60701    1.000
    Si226    Si       0.04160    0.14802    0.50532    1.000
    Si227    Si       0.09217    0.13156    0.56790    1.000
    N228     N        0.11122    0.16940    0.58156    1.000
    N229     N        0.20561    0.12488    0.73903    1.000
    N230     N        0.17439    0.14243    0.57262    1.000
    Si231    Si       0.14963    0.16522    0.59830    1.000
    Si232    Si       0.21766    0.13950    0.57110    1.000
    N233     N        0.23482    0.15583    0.60718    1.000
    Si234    Si       0.05920    0.16605    0.74588    1.000
    Si235    Si       0.00601    0.16907    0.63996    1.000
    N236     N        0.04170    0.16747    0.66518    1.000
    N237     N        0.04049    0.12943    0.72491    1.000
    Si238    Si       0.05200    0.12826    0.68111    1.000
    N239     N        0.14615    0.14116    0.63530    1.000
    Si240    Si       0.18753    0.13816    0.70190    1.000
    N241     N        0.21904    0.14685    0.67294    1.000
    Si242    Si       0.12745    0.15397    0.67365    1.000
    N243     N        0.15344    0.16475    0.70676    1.000
    N244     N        0.23598    0.15037    0.53206    1.000
    N245     N        0.99404    0.18198    0.55607    1.000
    N246     N        0.99998    0.13852    0.49976    1.000
    Si247    Si       0.04381    0.14907    0.81394    1.000
    N248     N        0.00951    0.15717    0.84106    1.000
    N249     N        0.07482    0.15766    0.84207    1.000
    N250     N        0.03744    0.17741    0.78128    1.000
    N251     N        0.09905    0.15101    0.75420    1.000
    N252     N        0.12969    0.14332    0.94312    1.000
    N253     N        0.16563    0.15873    0.78091    1.000
    N254     N        0.20723    0.13877    0.83104    1.000
    Si255    Si       0.19617    0.17509    0.80659    1.000
    Si256    Si       0.13725    0.17057    0.74934    1.000
    N257     N        0.18523    0.17870    0.98146    1.000
    N258     N        0.99982    0.15843    0.94975    1.000
    Si259    Si       0.03975    0.17186    0.94169    1.000
    N260     N        0.04584    0.15774    0.90162    1.000
    N261     N        0.06567    0.15426    0.97232    1.000
    Si262    Si       0.11006    0.16088    0.97708    1.000
    Si263    Si       0.13202    0.15824    0.90076    1.000
    Si264    Si       0.20058    0.14621    0.87314    1.000
    Si265    Si       0.22623    0.17629    0.96484    1.000
    N266     N        0.16800    0.17380    0.88059    1.000
    N267     N        0.23590    0.16949    0.88516    1.000
    N268     N        0.24117    0.13632    0.96439    1.000
    N269     N        0.05672    0.20768    0.02165    1.000
    N270     N        0.03218    0.20276    0.09433    1.000
    Si271    Si       0.04117    0.22477    0.05846    1.000
    N272     N        0.10262    0.21114    0.10412    1.000
    Si273    Si       0.99191    0.19385    0.10596    1.000
    Si274    Si       0.22984    0.19592    0.03640    1.000
    Si275    Si       0.17759    0.22559    0.07883    1.000
    N276     N        0.21209    0.23218    0.05031    1.000
    N277     N        0.00185    0.24011    0.04859    1.000
    Si278    Si       0.06268    0.21187    0.12507    1.000
    Si279    Si       0.01105    0.23548    0.22351    1.000
    N280     N        0.09961    0.22161    0.17718    1.000
    N281     N        0.04506    0.21303    0.21035    1.000
    N282     N        0.16304    0.21942    0.17946    1.000
    N283     N        0.05118    0.20348    0.32201    1.000
    Si284    Si       0.08828    0.20987    0.34462    1.000
    Si285    Si       0.01563    0.19917    0.34618    1.000
    Si286    Si       0.05359    0.22007    0.28032    1.000
    N287     N        0.01525    0.23402    0.26741    1.000
    N288     N        0.00824    0.23256    0.37027    1.000
    Si289    Si       0.18242    0.20144    0.30333    1.000
    N290     N        0.21472    0.22607    0.31785    1.000
    N291     N        0.15628    0.23338    0.29621    1.000
    Si292    Si       0.23524    0.19840    0.25469    1.000
    N293     N        0.08712    0.20070    0.38590    1.000
    N294     N        0.04891    0.22636    0.43643    1.000
    Si295    Si       0.08352    0.23537    0.41364    1.000
    Si296    Si       0.05660    0.18887    0.45683    1.000
    N297     N        0.12122    0.24233    0.43537    1.000
    N298     N        0.16887    0.19034    0.44147    1.000
    N299     N        0.22376    0.19726    0.48714    1.000
    Si300    Si       0.19022    0.21706    0.46864    1.000
    Si301    Si       0.13189    0.20885    0.45884    1.000
    N302     N        0.15177    0.21741    0.49584    1.000
    Si303    Si       0.08804    0.20650    0.58219    1.000
    N304     N        0.09292    0.22301    0.54125    1.000
    Si305    Si       0.05296    0.22842    0.51806    1.000
    N306     N        0.04524    0.20051    0.58806    1.000
    Si307    Si       0.00531    0.21921    0.57727    1.000
    N308     N        0.10681    0.23393    0.60780    1.000
    N309     N        0.22161    0.20004    0.71156    1.000
    N310     N        0.04371    0.19177    0.49698    1.000
    Si311    Si       0.14932    0.23836    0.60348    1.000
    N312     N        0.22504    0.22430    0.58129    1.000
    Si313    Si       0.21641    0.19744    0.61544    1.000
    N314     N        0.17173    0.20079    0.61237    1.000
    Si315    Si       0.13122    0.24110    0.52771    1.000
    N316     N        0.05063    0.23903    0.66097    1.000
    Si317    Si       0.06683    0.20104    0.67576    1.000
    N318     N        0.05957    0.20084    0.71940    1.000
    N319     N        0.11065    0.19283    0.67360    1.000
    Si320    Si       0.04939    0.23832    0.73995    1.000
    N321     N        0.22954    0.21860    0.65061    1.000
    Si322    Si       0.13777    0.21068    0.70101    1.000
    N323     N        0.12974    0.21173    0.74347    1.000
    N324     N        0.16395    0.23990    0.68250    1.000
    Si325    Si       0.20651    0.23257    0.68473    1.000
    Si326    Si       0.00766    0.20657    0.79022    1.000
    N327     N        0.02241    0.23466    0.81802    1.000
    N328     N        0.00921    0.23335    0.75374    1.000
    N329     N        0.18575    0.21111    0.82584    1.000
    Si330    Si       0.23104    0.21384    0.75112    1.000
    Si331    Si       0.17529    0.21527    0.86600    1.000
    N332     N        0.21202    0.23410    0.88301    1.000
    Si333    Si       0.12532    0.22804    0.90733    1.000
    N334     N        0.23200    0.18585    0.78480    1.000
    N335     N        0.05350    0.21349    0.95321    1.000
    N336     N        0.04641    0.22155    0.88371    1.000
    N337     N        0.10450    0.19261    0.89733    1.000
    Si338    Si       0.08006    0.22366    0.98727    1.000
    Si339    Si       0.06941    0.18442    0.87502    1.000
    N340     N        0.23186    0.21585    0.94060    1.000
    N341     N        0.16136    0.22792    0.93212    1.000
    Si342    Si       0.15985    0.21285    0.97340    1.000
    N343     N        0.11770    0.20281    0.98054    1.000
    Si344    Si       0.06507    0.27958    0.03083    1.000
    N345     N        0.06731    0.25831    0.06897    1.000
    N346     N        0.01563    0.28704    0.10121    1.000
    N347     N        0.09532    0.25968    0.00814    1.000
    Si348    Si       0.05935    0.28225    0.10668    1.000
    N349     N        0.10513    0.28088    0.11162    1.000
    Si350    Si       0.99605    0.25553    0.00766    1.000
    N351     N        0.03267    0.27611    0.00099    1.000
    Si352    Si       0.10795    0.24737    0.08456    1.000
    Si353    Si       0.12867    0.25094    0.18910    1.000
    Si354    Si       0.13540    0.26501    0.02179    1.000
    Si355    Si       0.20641    0.26348    0.02096    1.000
    N356     N        0.14356    0.24859    0.05952    1.000
    Si357    Si       0.23448    0.25169    0.12451    1.000
    N358     N        0.16952    0.24743    0.00011    1.000
    Si359    Si       0.18387    0.24894    0.15781    1.000
    N360     N        0.09247    0.27836    0.19666    1.000
    N361     N        0.02858    0.27102    0.20731    1.000
    N362     N        0.05432    0.25201    0.14150    1.000
    Si363    Si       0.06304    0.24790    0.18558    1.000
    Si364    Si       0.10193    0.28499    0.24134    1.000
    N365     N        0.22461    0.25681    0.16687    1.000
    N366     N        0.14231    0.26373    0.22779    1.000
    Si367    Si       0.14226    0.29860    0.12526    1.000
    N368     N        0.15094    0.27630    0.16125    1.000
    N369     N        0.20179    0.30294    0.04344    1.000
    Si370    Si       0.16299    0.29742    0.24672    1.000
    N371     N        0.19310    0.24260    0.11576    1.000
    N372     N        0.10434    0.24742    0.33312    1.000
    N373     N        0.08536    0.24809    0.26708    1.000
    Si374    Si       0.99123    0.26976    0.35803    1.000
    Si375    Si       0.11366    0.27899    0.36387    1.000
    Si376    Si       0.11899    0.25418    0.29284    1.000
    Si377    Si       0.19063    0.26056    0.30349    1.000
    N378     N        0.19823    0.27940    0.26427    1.000
    N379     N        0.13020    0.29675    0.27638    1.000
    N380     N        0.19226    0.29443    0.33063    1.000
    Si381    Si       0.02699    0.25528    0.45907    1.000
    N382     N        0.07957    0.27089    0.39082    1.000
    N383     N        0.03204    0.29284    0.43689    1.000
    N384     N        0.05644    0.26317    0.49181    1.000
    Si385    Si       0.04759    0.29745    0.39867    1.000
    N386     N        0.15150    0.27582    0.38675    1.000
    Si387    Si       0.22913    0.27431    0.43393    1.000
    Si388    Si       0.15528    0.26759    0.42881    1.000
    N389     N        0.19402    0.25375    0.44839    1.000
    N390     N        0.22431    0.28263    0.39100    1.000
    Si391    Si       0.18705    0.29792    0.37456    1.000
    N392     N        0.04487    0.27512    0.60980    1.000
    Si393    Si       0.08399    0.29569    0.50431    1.000
    Si394    Si       0.98795    0.27386    0.54857    1.000
    N395     N        0.22245    0.27118    0.69277    1.000
    Si396    Si       0.20310    0.25257    0.55874    1.000
    N397     N        0.12419    0.27942    0.50585    1.000
    N398     N        0.20380    0.29458    0.57490    1.000
    N399     N        0.22893    0.25743    0.52529    1.000
    Si400    Si       0.15014    0.27858    0.66421    1.000
    N401     N        0.16017    0.24297    0.56019    1.000
    Si402    Si       0.02681    0.27707    0.64869    1.000
    N403     N        0.05747    0.27932    0.72521    1.000
    N404     N        0.10532    0.27808    0.66275    1.000
    Si405    Si       0.08123    0.25776    0.63208    1.000
    Si406    Si       0.07792    0.29703    0.69074    1.000
    N407     N        0.16082    0.27589    0.62205    1.000
    N408     N        0.13293    0.28014    0.73535    1.000
    N409     N        0.99043    0.29146    0.72564    1.000
    N410     N        0.02065    0.24456    0.54287    1.000
    Si411    Si       0.05128    0.26604    0.80241    1.000
    N412     N        0.08431    0.28112    0.82883    1.000
    N413     N        0.02603    0.28686    0.86138    1.000
    N414     N        0.07677    0.24444    0.77356    1.000
    N415     N        0.14071    0.24184    0.86696    1.000
    Si416    Si       0.01729    0.24392    0.85884    1.000
    Si417    Si       0.11888    0.24982    0.76101    1.000
    N418     N        0.20754    0.27401    0.82218    1.000
    Si419    Si       0.12627    0.26953    0.83445    1.000
    N420     N        0.14157    0.25507    0.79815    1.000
    Si421    Si       0.23486    0.25581    0.85260    1.000
    N422     N        0.09720    0.25679    0.92458    1.000
    N423     N        0.02965    0.27508    0.93240    1.000
    N424     N        0.23967    0.27069    0.99441    1.000
    N425     N        0.20800    0.28481    0.93566    1.000
    Si426    Si       0.05504    0.24192    0.92160    1.000
    N427     N        0.20323    0.24613    0.76386    1.000
    Si428    Si       0.20119    0.24285    0.92559    1.000
    Si429    Si       0.99284    0.30276    0.93694    1.000
    Si430    Si       0.04515    0.29809    0.96629    1.000
    Si431    Si       0.18219    0.24745    0.80125    1.000
    N432     N        0.05931    0.33042    0.09708    1.000
    N433     N        0.07397    0.32283    0.02956    1.000
    Si434    Si       0.01510    0.33178    0.10123    1.000
    Si435    Si       0.07095    0.35098    0.06234    1.000
    N436     N        0.99412    0.34594    0.06714    1.000
    N437     N        0.18887    0.33041    0.22864    1.000
    N438     N        0.22417    0.35913    0.08064    1.000
    N439     N        0.13912    0.30921    0.01458    1.000
    Si440    Si       0.17471    0.33079    0.02578    1.000
    Si441    Si       0.21281    0.31667    0.08563    1.000
    N442     N        0.17723    0.32099    0.11095    1.000
    Si443    Si       0.08785    0.35220    0.12278    1.000
    N444     N        0.01234    0.35577    0.13587    1.000
    Si445    Si       0.02619    0.30706    0.23200    1.000
    N446     N        0.00814    0.33456    0.20394    1.000
    N447     N        0.07007    0.33495    0.16216    1.000
    Si448    Si       0.10657    0.31611    0.17809    1.000
    Si449    Si       0.03370    0.35349    0.17394    1.000
    Si450    Si       0.16086    0.35950    0.21163    1.000
    N451     N        0.12658    0.33660    0.14375    1.000
    N452     N        0.12762    0.33163    0.21379    1.000
    Si453    Si       0.16359    0.35775    0.13343    1.000
    Si454    Si       0.22479    0.30914    0.24593    1.000
    Si455    Si       0.01671    0.34203    0.34821    1.000
    Si456    Si       0.08405    0.34970    0.35256    1.000
    N457     N        0.05251    0.34167    0.32357    1.000
    Si458    Si       0.06737    0.34732    0.28332    1.000
    N459     N        0.99693    0.30967    0.26336    1.000
    N460     N        0.06780    0.31451    0.25077    1.000
    N461     N        0.01555    0.30338    0.37032    1.000
    N462     N        0.24214    0.32211    0.28587    1.000
    N463     N        0.11499    0.31677    0.34388    1.000
    Si464    Si       0.13509    0.32542    0.30644    1.000
    Si465    Si       0.20850    0.33074    0.31168    1.000
    N466     N        0.17134    0.34703    0.29561    1.000
    Si467    Si       0.15306    0.30888    0.49159    1.000
    Si468    Si       0.03135    0.32514    0.46604    1.000
    N469     N        0.06748    0.33551    0.38917    1.000
    N470     N        0.07483    0.33124    0.47930    1.000
    N471     N        0.22653    0.35499    0.34281    1.000
    N472     N        0.01697    0.35693    0.43895    1.000
    N473     N        0.18182    0.33785    0.39038    1.000
    Si474    Si       0.21786    0.34245    0.47767    1.000
    Si475    Si       0.16386    0.34561    0.42957    1.000
    N476     N        0.15502    0.30666    0.44811    1.000
    N477     N        0.23381    0.30973    0.45543    1.000
    N478     N        0.07146    0.33617    0.59963    1.000
    Si479    Si       0.10031    0.33460    0.56551    1.000
    N480     N        0.00820    0.31202    0.56165    1.000
    Si481    Si       0.04745    0.30486    0.57849    1.000
    N482     N        0.07637    0.30571    0.54567    1.000
    N483     N        0.00278    0.33871    0.49686    1.000
    Si484    Si       0.21739    0.32064    0.54509    1.000
    N485     N        0.19052    0.32574    0.51033    1.000
    N486     N        0.14335    0.32709    0.57058    1.000
    Si487    Si       0.17089    0.31082    0.59951    1.000
    N488     N        0.13284    0.34587    0.50514    1.000
    Si489    Si       0.16282    0.35314    0.53758    1.000
    N490     N        0.20329    0.36038    0.56365    1.000
    N491     N        0.04435    0.31118    0.66729    1.000
    Si492    Si       0.02574    0.35057    0.67978    1.000
    N493     N        0.10019    0.33089    0.70349    1.000
    N494     N        0.02886    0.34369    0.72370    1.000
    Si495    Si       0.02733    0.30543    0.74351    1.000
    N496     N        0.16324    0.31476    0.68498    1.000
    N497     N        0.14427    0.35607    0.74133    1.000
    N498     N        0.23219    0.33527    0.67847    1.000
    Si499    Si       0.19133    0.34622    0.66881    1.000
    Si500    Si       0.14040    0.31895    0.72155    1.000
    N501     N        0.18779    0.34356    0.62599    1.000
    Si502    Si       0.23916    0.30562    0.71006    1.000
    Si503    Si       0.01262    0.33419    0.81087    1.000
    N504     N        0.04543    0.34582    0.83678    1.000
    Si505    Si       0.06105    0.30978    0.85496    1.000
    N506     N        0.21176    0.34180    0.81302    1.000
    Si507    Si       0.22826    0.34689    0.77399    1.000
    Si508    Si       0.18877    0.31187    0.83364    1.000
    Si509    Si       0.22985    0.35378    0.85319    1.000
    N510     N        0.14743    0.30868    0.84249    1.000
    N511     N        0.22701    0.30962    0.75230    1.000
    N512     N        0.09093    0.31840    0.88518    1.000
    N513     N        0.01725    0.33139    0.96185    1.000
    N514     N        0.08730    0.31317    0.96152    1.000
    Si515    Si       0.10409    0.29974    0.92342    1.000
    Si516    Si       0.13199    0.33128    0.87697    1.000
    N517     N        0.14613    0.30990    0.91319    1.000
    Si518    Si       0.18904    0.31615    0.91233    1.000
    N519     N        0.19025    0.35192    0.98999    1.000
    N520     N        0.19517    0.35727    0.92651    1.000
    N521     N        0.20732    0.32138    0.87291    1.000
    N522     N        0.02977    0.30170    0.78711    1.000
    Si523    Si       0.10572    0.32867    0.99662    1.000
    N524     N        0.05197    0.39180    0.06088    1.000
    Si525    Si       0.02794    0.40860    0.02925    1.000
    Si526    Si       0.07647    0.41773    0.08765    1.000
    N527     N        0.10825    0.36274    0.08143    1.000
    N528     N        0.16644    0.38932    0.10437    1.000
    Si529    Si       0.13974    0.39208    0.07161    1.000
    Si530    Si       0.20683    0.39611    0.09406    1.000
    N531     N        0.16084    0.37120    0.04070    1.000
    Si532    Si       0.15586    0.38203    0.99873    1.000
    N533     N        0.07894    0.39637    0.12584    1.000
    N534     N        0.04981    0.39356    0.18939    1.000
    Si535    Si       0.05601    0.40497    0.23287    1.000
    Si536    Si       0.07976    0.41673    0.16372    1.000
    N537     N        0.17627    0.37590    0.17140    1.000
    Si538    Si       0.20253    0.41046    0.16445    1.000
    N539     N        0.14830    0.39190    0.23998    1.000
    N540     N        0.22877    0.40232    0.13107    1.000
    N541     N        0.11871    0.41927    0.18251    1.000
    N542     N        0.22351    0.42093    0.20006    1.000
    N543     N        0.04304    0.37747    0.26386    1.000
    Si544    Si       0.01084    0.40586    0.27089    1.000
    N545     N        0.10402    0.38643    0.36579    1.000
    Si546    Si       0.14758    0.38107    0.28191    1.000
    Si547    Si       0.13622    0.41438    0.35109    1.000
    N548     N        0.15348    0.41167    0.31258    1.000
    N549     N        0.16622    0.40559    0.37894    1.000
    N550     N        0.02240    0.37807    0.37093    1.000
    N551     N        0.06703    0.39507    0.42571    1.000
    N552     N        0.01500    0.41121    0.48398    1.000
    Si553    Si       0.04344    0.36615    0.40616    1.000
    N554     N        0.10468    0.40325    0.49152    1.000
    Si555    Si       0.10706    0.39413    0.40963    1.000
    Si556    Si       0.99422    0.37562    0.47167    1.000
    Si557    Si       0.01543    0.42024    0.37057    1.000
    Si558    Si       0.03836    0.41958    0.44854    1.000
    N559     N        0.19599    0.36691    0.45081    1.000
    Si560    Si       0.21351    0.40761    0.43931    1.000
    N561     N        0.12598    0.36665    0.43779    1.000
    N562     N        0.22823    0.39942    0.39931    1.000
    Si563    Si       0.19903    0.37482    0.37640    1.000
    N564     N        0.10957    0.35921    0.29194    1.000
    Si565    Si       0.10464    0.36140    0.47481    1.000
    N566     N        0.08863    0.37654    0.55759    1.000
    Si567    Si       0.06701    0.37964    0.59583    1.000
    N568     N        0.02724    0.39692    0.60031    1.000
    N569     N        0.09075    0.40747    0.61901    1.000
    Si570    Si       0.11605    0.40416    0.53305    1.000
    N571     N        0.15773    0.39695    0.54408    1.000
    N572     N        0.22162    0.41192    0.59926    1.000
    Si573    Si       0.19803    0.40762    0.56117    1.000
    Si574    Si       0.21750    0.36714    0.60586    1.000
    Si575    Si       0.04371    0.38408    0.72713    1.000
    N576     N        0.05145    0.38683    0.68220    1.000
    Si577    Si       0.08239    0.41389    0.66184    1.000
    Si578    Si       0.10701    0.37408    0.71749    1.000
    N579     N        0.02173    0.41697    0.74495    1.000
    N580     N        0.18725    0.38916    0.68416    1.000
    Si581    Si       0.22196    0.39388    0.71086    1.000
    N582     N        0.11574    0.40141    0.68690    1.000
    Si583    Si       0.99918    0.41986    0.52335    1.000
    N584     N        0.08158    0.38598    0.74935    1.000
    Si585    Si       0.01129    0.40990    0.78737    1.000
    Si586    Si       0.06315    0.38540    0.84143    1.000
    N587     N        0.10332    0.38862    0.82068    1.000
    Si588    Si       0.08601    0.40698    0.78436    1.000
    N589     N        0.04892    0.41014    0.80692    1.000
    N590     N        0.99754    0.36854    0.78876    1.000
    Si591    Si       0.21992    0.36399    0.96248    1.000
    Si592    Si       0.18323    0.38532    0.89656    1.000
    Si593    Si       0.16864    0.38548    0.75988    1.000
    N594     N        0.17005    0.39681    0.80238    1.000
    Si595    Si       0.14381    0.39340    0.83831    1.000
    N596     N        0.15020    0.37014    0.87368    1.000
    N597     N        0.20971    0.37704    0.74896    1.000
    N598     N        0.21850    0.39107    0.87267    1.000
    N599     N        0.05776    0.41218    0.87544    1.000
    Si600    Si       0.02515    0.37323    0.95674    1.000
    Si601    Si       0.08191    0.39206    0.97295    1.000
    N602     N        0.06145    0.37930    0.93549    1.000
    N603     N        0.04421    0.39002    0.99312    1.000
    Si604    Si       0.07877    0.41433    0.91404    1.000
    N605     N        0.98667    0.38980    0.94054    1.000
    N606     N        0.11601    0.36920    0.98721    1.000
    N607     N        0.23189    0.40555    0.95580    1.000
    N608     N        0.17161    0.42038    0.98901    1.000
    N609     N        0.05563    0.45576    0.09158    1.000
    N610     N        0.03543    0.45057    0.02432    1.000
    Si611    Si       0.04929    0.47865    0.05397    1.000
    N612     N        0.11367    0.42711    0.06205    1.000
    Si613    Si       0.11858    0.46941    0.04371    1.000
    Si614    Si       0.19395    0.46889    0.05729    1.000
    N615     N        0.21135    0.42749    0.06429    1.000
    N616     N        0.12597    0.47632    0.00218    1.000
    Si617    Si       0.04635    0.47582    0.12751    1.000
    N618     N        0.04775    0.44920    0.16168    1.000
    N619     N        0.01603    0.42482    0.23184    1.000
    Si620    Si       0.01679    0.42942    0.18571    1.000
    N621     N        0.08771    0.43261    0.23918    1.000
    N622     N        0.18535    0.44758    0.14863    1.000
    Si623    Si       0.20334    0.44609    0.22903    1.000
    N624     N        0.11659    0.47248    0.14312    1.000
    N625     N        0.16354    0.45704    0.20876    1.000
    Si626    Si       0.14573    0.45147    0.16822    1.000
    Si627    Si       0.13076    0.42723    0.22629    1.000
    Si628    Si       0.98933    0.45927    0.23782    1.000
    N629     N        0.02041    0.43955    0.29414    1.000
    N630     N        0.04648    0.44318    0.35258    1.000
    Si631    Si       0.04017    0.47070    0.31606    1.000
    Si632    Si       0.10037    0.47268    0.25473    1.000
    Si633    Si       0.08005    0.46635    0.36667    1.000
    N634     N        0.12091    0.45527    0.35824    1.000
    N635     N        0.20395    0.43261    0.27009    1.000
    Si636    Si       0.17055    0.44689    0.29460    1.000
    N637     N        0.13888    0.45816    0.26634    1.000
    Si638    Si       0.21013    0.47016    0.35061    1.000
    N639     N        0.23316    0.43495    0.33754    1.000
    N640     N        0.12885    0.46443    0.48611    1.000
    N641     N        0.01027    0.42899    0.41378    1.000
    N642     N        0.06593    0.44992    0.45896    1.000
    Si643    Si       0.10681    0.43577    0.46267    1.000
    Si644    Si       0.16946    0.47311    0.47040    1.000
    N645     N        0.18349    0.47361    0.38616    1.000
    Si646    Si       0.16266    0.43976    0.40763    1.000
    N647     N        0.18410    0.43959    0.44555    1.000
    N648     N        0.12380    0.43083    0.42389    1.000
    Si649    Si       0.98876    0.46341    0.42561    1.000
    N650     N        0.17868    0.47750    0.32377    1.000
    Si651    Si       0.24218    0.42958    0.29459    1.000
    Si652    Si       0.09878    0.44461    0.59577    1.000
    Si653    Si       0.02475    0.44224    0.59816    1.000
    N654     N        0.02908    0.44061    0.54585    1.000
    N655     N        0.06007    0.46740    0.59257    1.000
    N656     N        0.10977    0.44158    0.55360    1.000
    Si657    Si       0.23516    0.47249    0.72600    1.000
    N658     N        0.22007    0.42696    0.52938    1.000
    N659     N        0.13026    0.46874    0.61261    1.000
    Si660    Si       0.21904    0.47149    0.53130    1.000
    N661     N        0.08067    0.45797    0.66260    1.000
    N662     N        0.01462    0.45793    0.63721    1.000
    Si663    Si       0.01016    0.45724    0.73654    1.000
    N664     N        0.15201    0.46126    0.68225    1.000
    N665     N        0.15603    0.42261    0.73934    1.000
    N666     N        0.22850    0.43735    0.70330    1.000
    Si667    Si       0.12164    0.47773    0.65504    1.000
    Si668    Si       0.15603    0.41851    0.69464    1.000
    Si669    Si       0.11400    0.47604    0.52773    1.000
    N670     N        0.09727    0.44774    0.77564    1.000
    Si671    Si       0.04524    0.45221    0.86668    1.000
    N672     N        0.05859    0.47199    0.83165    1.000
    N673     N        0.16071    0.43085    0.85370    1.000
    N674     N        0.22778    0.44144    0.82838    1.000
    N675     N        0.16327    0.46431    0.79351    1.000
    Si676    Si       0.18419    0.43647    0.81871    1.000
    Si677    Si       0.13750    0.45582    0.75891    1.000
    N678     N        0.00277    0.45242    0.87196    1.000
    Si679    Si       0.99259    0.47264    0.91014    1.000
    N680     N        0.00363    0.45488    0.94818    1.000
    N681     N        0.08851    0.43120    0.95984    1.000
    Si682    Si       0.01995    0.46963    0.98572    1.000
    Si683    Si       0.09738    0.47012    0.97160    1.000
    N684     N        0.11241    0.44130    0.90043    1.000
    N685     N        0.19712    0.47403    0.95505    1.000
    Si686    Si       0.15430    0.44481    0.89397    1.000
    N687     N        0.23488    0.46340    0.89669    1.000
    Si688    Si       0.19662    0.42937    0.95523    1.000
    Si689    Si       0.23932    0.42901    0.87006    1.000
    N690     N        0.17518    0.41885    0.91954    1.000
    N691     N        0.01842    0.50869    0.05837    1.000
    N692     N        0.08661    0.50098    0.05270    1.000
    Si693    Si       0.00566    0.53082    0.02137    1.000
    Si694    Si       0.99279    0.51026    0.09341    1.000
    Si695    Si       0.16175    0.52033    0.09272    1.000
    N696     N        0.21754    0.48523    0.09356    1.000
    N697     N        0.19794    0.48658    0.01810    1.000
    N698     N        0.12088    0.53470    0.10267    1.000
    N699     N        0.15334    0.48459    0.06767    1.000
    N700     N        0.06198    0.51619    0.13473    1.000
    Si701    Si       0.10555    0.51399    0.13909    1.000
    N702     N        0.99783    0.53408    0.18102    1.000
    N703     N        0.00373    0.48196    0.12560    1.000
    N704     N        0.11740    0.50392    0.22822    1.000
    N705     N        0.12036    0.53489    0.17319    1.000
    Si706    Si       0.20559    0.48266    0.13455    1.000
    Si707    Si       0.16156    0.49932    0.22674    1.000
    N708     N        0.17592    0.51545    0.13397    1.000
    Si709    Si       0.22390    0.51878    0.19558    1.000
    N710     N        0.22031    0.48484    0.22722    1.000
    N711     N        0.18200    0.52766    0.19907    1.000
    N712     N        0.98635    0.49768    0.99951    1.000
    N713     N        0.06560    0.50007    0.33998    1.000
    Si714    Si       0.08680    0.51889    0.30833    1.000
    N715     N        0.99805    0.48932    0.32065    1.000
    Si716    Si       0.04306    0.52553    0.25579    1.000
    N717     N        0.06909    0.48924    0.27947    1.000
    N718     N        0.12870    0.51270    0.31456    1.000
    Si719    Si       0.14482    0.48886    0.34925    1.000
    N720     N        0.17017    0.52536    0.26325    1.000
    Si721    Si       0.16411    0.53618    0.30572    1.000
    N722     N        0.14257    0.52289    0.37759    1.000
    Si723    Si       0.00406    0.53271    0.42222    1.000
    Si724    Si       0.05777    0.52327    0.37618    1.000
    Si725    Si       0.06019    0.49071    0.44395    1.000
    N726     N        0.01571    0.52592    0.38077    1.000
    N727     N        0.08345    0.52102    0.46039    1.000
    N728     N        0.01607    0.49422    0.43896    1.000
    N729     N        0.07097    0.49035    0.40164    1.000
    Si730    Si       0.17652    0.51423    0.40396    1.000
    Si731    Si       0.12728    0.53037    0.45728    1.000
    N732     N        0.15656    0.50501    0.44162    1.000
    Si733    Si       0.98783    0.50798    0.27929    1.000
    N734     N        0.01243    0.49530    0.24539    1.000
    N735     N        0.07510    0.49517    0.52373    1.000
    N736     N        0.01244    0.50457    0.55541    1.000
    Si737    Si       0.99581    0.53114    0.52363    1.000
    Si738    Si       0.06948    0.53161    0.50202    1.000
    Si739    Si       0.04698    0.47859    0.55116    1.000
    Si740    Si       0.15949    0.53873    0.64872    1.000
    N741     N        0.14458    0.49933    0.54861    1.000
    Si742    Si       0.21814    0.50908    0.60188    1.000
    Si743    Si       0.17127    0.52279    0.52251    1.000
    N744     N        0.17654    0.51486    0.61610    1.000
    Si745    Si       0.15941    0.48871    0.58801    1.000
    N746     N        0.19175    0.48891    0.50125    1.000
    N747     N        0.20184    0.48190    0.57079    1.000
    Si748    Si       0.03632    0.51122    0.73381    1.000
    N749     N        0.04708    0.52524    0.65692    1.000
    N750     N        0.07375    0.52695    0.73454    1.000
    Si751    Si       0.04271    0.48029    0.66263    1.000
    N752     N        0.02641    0.47792    0.70253    1.000
    N753     N        0.12058    0.52237    0.66055    1.000
    Si754    Si       0.22512    0.53485    0.67992    1.000
    N755     N        0.13367    0.49333    0.73550    1.000
    N756     N        0.19723    0.48936    0.73802    1.000
    N757     N        0.18218    0.53092    0.68601    1.000
    Si758    Si       0.16547    0.49477    0.70810    1.000
    N759     N        0.23258    0.53575    0.63760    1.000
    N760     N        0.09089    0.51592    0.79536    1.000
    Si761    Si       0.08914    0.52549    0.83793    1.000
    N762     N        0.11059    0.50220    0.86818    1.000
    Si763    Si       0.06895    0.47756    0.78975    1.000
    N764     N        0.03179    0.48289    0.76628    1.000
    Si765    Si       0.11494    0.52735    0.75717    1.000
    Si766    Si       0.18371    0.49893    0.77730    1.000
    N767     N        0.21909    0.49997    0.80193    1.000
    N768     N        0.15572    0.53104    0.78170    1.000
    Si769    Si       0.21874    0.53389    0.82819    1.000
    N770     N        0.05563    0.47941    0.90001    1.000
    N771     N        0.99740    0.51363    0.90323    1.000
    Si772    Si       0.04088    0.52094    0.89458    1.000
    N773     N        0.05782    0.49058    0.97751    1.000
    Si774    Si       0.06286    0.53354    0.96891    1.000
    Si775    Si       0.09798    0.48171    0.90389    1.000
    N776     N        0.11607    0.49649    0.94161    1.000
    N777     N        0.16233    0.53473    0.97425    1.000
    N778     N        0.16966    0.48403    0.89352    1.000
    Si779    Si       0.15049    0.51780    0.87271    1.000
    N780     N        0.21880    0.53217    0.90565    1.000
    Si781    Si       0.16643    0.49145    0.98794    1.000
    Si782    Si       0.20539    0.48990    0.91439    1.000
    Si783    Si       0.12946    0.53675    0.94564    1.000
    Si784    Si       0.22748    0.47849    0.99027    1.000
    N785     N        0.06412    0.56743    0.08353    1.000
    N786     N        0.00220    0.54854    0.11177    1.000
    Si787    Si       0.04465    0.55475    0.12134    1.000
    Si788    Si       0.09673    0.54161    0.06977    1.000
    Si789    Si       0.21746    0.58140    0.13986    1.000
    Si790    Si       0.11478    0.58025    0.00305    1.000
    N791     N        0.24192    0.56107    0.11050    1.000
    N792     N        0.12025    0.56765    0.04342    1.000
    N793     N        0.21083    0.56643    0.01155    1.000
    N794     N        0.17883    0.55584    0.07311    1.000
    Si795    Si       0.20969    0.58304    0.05190    1.000
    Si796    Si       0.14898    0.58852    0.06717    1.000
    N797     N        0.01306    0.59341    0.21312    1.000
    N798     N        0.05265    0.57846    0.15659    1.000
    Si799    Si       0.03195    0.56051    0.19206    1.000
    Si800    Si       0.10145    0.54035    0.21101    1.000
    N801     N        0.06046    0.53930    0.21744    1.000
    N802     N        0.17563    0.58151    0.14707    1.000
    N803     N        0.12888    0.57416    0.22745    1.000
    Si804    Si       0.16223    0.54267    0.16566    1.000
    N805     N        0.23294    0.55748    0.17249    1.000
    N806     N        0.03433    0.55142    0.99749    1.000
    N807     N        0.00582    0.54890    0.27483    1.000
    Si808    Si       0.03199    0.57866    0.29114    1.000
    N809     N        0.06573    0.55034    0.28637    1.000
    N810     N        0.02149    0.58717    0.33197    1.000
    Si811    Si       0.05906    0.59073    0.35422    1.000
    N812     N        0.20295    0.55062    0.32159    1.000
    N813     N        0.14593    0.57592    0.29501    1.000
    Si814    Si       0.22267    0.58040    0.29574    1.000
    Si815    Si       0.16200    0.56681    0.25428    1.000
    N816     N        0.20100    0.58642    0.25579    1.000
    Si817    Si       0.22659    0.54407    0.35882    1.000
    N818     N        0.13176    0.56598    0.43146    1.000
    N819     N        0.08222    0.55748    0.37309    1.000
    Si820    Si       0.01171    0.57668    0.47491    1.000
    N821     N        0.02110    0.57019    0.43317    1.000
    Si822    Si       0.12365    0.55989    0.38814    1.000
    N823     N        0.20639    0.54405    0.39952    1.000
    Si824    Si       0.15639    0.59707    0.45137    1.000
    N825     N        0.19757    0.58921    0.45374    1.000
    Si826    Si       0.22174    0.57789    0.41908    1.000
    N827     N        0.13809    0.53968    0.49877    1.000
    N828     N        0.08320    0.57189    0.51862    1.000
    Si829    Si       1.00000    0.59425    0.57716    1.000
    N830     N        0.08427    0.56911    0.61992    1.000
    N831     N        0.02674    0.54181    0.49650    1.000
    N832     N        0.00293    0.58381    0.62051    1.000
    Si833    Si       0.12195    0.58490    0.59965    1.000
    Si834    Si       0.12744    0.57652    0.51949    1.000
    N835     N        0.13669    0.57198    0.56070    1.000
    N836     N        0.19969    0.55617    0.52267    1.000
    N837     N        0.23901    0.54232    0.57676    1.000
    N838     N        0.19452    0.59370    0.74062    1.000
    Si839    Si       0.01500    0.54615    0.63906    1.000
    N840     N        0.07693    0.58117    0.68611    1.000
    Si841    Si       0.08395    0.54694    0.65838    1.000
    Si842    Si       0.07748    0.57064    0.72964    1.000
    N843     N        0.00349    0.54308    0.73556    1.000
    N844     N        0.15077    0.57620    0.63170    1.000
    Si845    Si       0.24196    0.54106    0.53319    1.000
    Si846    Si       0.21420    0.58812    0.49612    1.000
    Si847    Si       0.02557    0.57206    0.84089    1.000
    Si848    Si       0.00798    0.57238    0.76603    1.000
    N849     N        0.99941    0.56308    0.80605    1.000
    N850     N        0.05035    0.58691    0.75957    1.000
    N851     N        0.99099    0.57377    0.86904    1.000
    N852     N        0.12161    0.55684    0.84212    1.000
    N853     N        0.22490    0.57036    0.80614    1.000
    Si854    Si       0.15454    0.55819    0.81482    1.000
    Si855    Si       0.18893    0.56564    0.90505    1.000
    N856     N        0.17994    0.53659    0.84749    1.000
    N857     N        0.05190    0.53955    0.85607    1.000
    N858     N        0.05187    0.54623    0.92756    1.000
    N859     N        0.10059    0.55466    0.97218    1.000
    Si860    Si       0.05808    0.59198    0.92450    1.000
    Si861    Si       0.04382    0.59470    0.99711    1.000
    N862     N        0.14666    0.54781    0.90655    1.000
    N863     N        0.20130    0.58472    0.94359    1.000
    Si864    Si       0.18100    0.57502    0.98066    1.000
    Si865    Si       0.13001    0.58363    0.87838    1.000
    N866     N        0.09539    0.59602    0.90106    1.000
    Si867    Si       0.15200    0.59231    0.74757    1.000
    N868     N        0.11794    0.56746    0.74290    1.000
    N869     N        0.01042    0.61259    0.10054    1.000
    N870     N        0.06555    0.64005    0.06595    1.000
    Si871    Si       0.09581    0.63966    0.09664    1.000
    N872     N        0.08288    0.61307    0.00383    1.000
    Si873    Si       0.07755    0.65136    0.02614    1.000
    Si874    Si       0.04134    0.60376    0.07099    1.000
    N875     N        0.02224    0.60560    0.03157    1.000
    Si876    Si       0.02238    0.64910    0.12038    1.000
    N877     N        0.12812    0.61197    0.09778    1.000
    N878     N        0.18138    0.61689    0.05726    1.000
    N879     N        0.07486    0.62088    0.20762    1.000
    Si880    Si       0.07385    0.61547    0.16329    1.000
    Si881    Si       0.03798    0.62339    0.23120    1.000
    N882     N        0.06766    0.64458    0.13094    1.000
    Si883    Si       0.14856    0.61368    0.13709    1.000
    N884     N        0.14343    0.64155    0.23032    1.000
    Si885    Si       0.11706    0.61422    0.21097    1.000
    N886     N        0.11853    0.61108    0.16576    1.000
    N887     N        0.22905    0.62185    0.12827    1.000
    N888     N        0.16714    0.65455    0.13599    1.000
    Si889    Si       0.21490    0.61865    0.22820    1.000
    Si890    Si       0.20679    0.65020    0.14962    1.000
    N891     N        0.19967    0.63853    0.19233    1.000
    Si892    Si       0.18758    0.65859    0.04719    1.000
    N893     N        0.04679    0.61665    0.27290    1.000
    Si894    Si       0.06825    0.64194    0.30103    1.000
    N895     N        0.08482    0.60950    0.32590    1.000
    Si896    Si       0.12898    0.60475    0.32314    1.000
    N897     N        0.14295    0.64265    0.30980    1.000
    N898     N        0.23269    0.61759    0.32018    1.000
    N899     N        0.13484    0.59535    0.36489    1.000
    N900     N        0.00306    0.63893    0.43538    1.000
    N901     N        0.04462    0.61833    0.38349    1.000
    Si902    Si       0.00759    0.64498    0.47692    1.000
    Si903    Si       0.01138    0.60629    0.40893    1.000
    Si904    Si       0.20657    0.65020    0.39085    1.000
    N905     N        0.14205    0.63091    0.42796    1.000
    Si906    Si       0.13317    0.63233    0.38684    1.000
    N907     N        0.22033    0.60991    0.39051    1.000
    N908     N        0.14717    0.60586    0.49380    1.000
    N909     N        0.08377    0.64177    0.52633    1.000
    N910     N        0.10199    0.62187    0.59051    1.000
    Si911    Si       0.05725    0.60479    0.52693    1.000
    Si912    Si       0.06527    0.60691    0.60701    1.000
    Si913    Si       0.10998    0.65100    0.56051    1.000
    N914     N        0.04173    0.60055    0.56897    1.000
    Si915    Si       0.17787    0.60893    0.63925    1.000
    N916     N        0.20814    0.62945    0.51259    1.000
    Si917    Si       0.16573    0.64225    0.50837    1.000
    N918     N        0.15184    0.64885    0.54810    1.000
    N919     N        0.21645    0.59912    0.62289    1.000
    N920     N        0.16716    0.64720    0.61867    1.000
    N921     N        0.05456    0.63134    0.64059    1.000
    Si922    Si       0.08134    0.62470    0.67783    1.000
    N923     N        0.07288    0.64695    0.71474    1.000
    Si924    Si       0.15468    0.63823    0.69462    1.000
    N925     N        0.18482    0.61344    0.68104    1.000
    N926     N        0.12010    0.64029    0.66748    1.000
    Si927    Si       0.21852    0.60596    0.70736    1.000
    N928     N        0.14309    0.63190    0.73413    1.000
    N929     N        0.02690    0.61061    0.49577    1.000
    N930     N        0.09882    0.63404    0.78387    1.000
    Si931    Si       0.06019    0.61785    0.78961    1.000
    N932     N        0.03116    0.65096    0.78981    1.000
    Si933    Si       0.99763    0.64790    0.76392    1.000
    Si934    Si       0.07424    0.62042    0.86654    1.000
    N935     N        0.05373    0.60226    0.82990    1.000
    Si936    Si       0.10585    0.65462    0.74507    1.000
    N937     N        0.11739    0.62451    0.84945    1.000
    Si938    Si       0.13220    0.62598    0.80874    1.000
    N939     N        0.21211    0.64291    0.78559    1.000
    Si940    Si       0.20342    0.59944    0.78168    1.000
    Si941    Si       0.13756    0.64752    0.99553    1.000
    Si942    Si       0.17356    0.64285    0.88951    1.000
    Si943    Si       0.99512    0.61411    0.88309    1.000
    N944     N        0.03174    0.60799    0.95715    1.000
    N945     N        0.03714    0.61256    0.89090    1.000
    Si946    Si       0.99416    0.63204    0.95417    1.000
    N947     N        0.18450    0.65295    0.93076    1.000
    Si948    Si       0.21676    0.62415    0.93616    1.000
    N949     N        0.14891    0.60481    0.99056    1.000
    N950     N        0.17034    0.60034    0.88519    1.000
    N951     N        0.15934    0.59691    0.79310    1.000
    N952     N        0.00800    0.67512    0.08735    1.000
    N953     N        0.99485    0.69911    0.02711    1.000
    N954     N        0.05631    0.71198    0.11787    1.000
    N955     N        0.11320    0.68065    0.10156    1.000
    Si956    Si       0.03491    0.71032    0.01019    1.000
    N957     N        0.18088    0.70724    0.20548    1.000
    Si958    Si       0.13371    0.69490    0.06133    1.000
    N959     N        0.17400    0.68969    0.07587    1.000
    N960     N        0.11797    0.66471    0.03229    1.000
    N961     N        0.17561    0.66545    0.00402    1.000
    N962     N        0.23065    0.66500    0.03425    1.000
    N963     N        0.05822    0.69293    0.18081    1.000
    Si964    Si       0.08143    0.68525    0.13912    1.000
    Si965    Si       0.01707    0.68403    0.18723    1.000
    N966     N        0.01484    0.65911    0.22399    1.000
    N967     N        0.11578    0.68859    0.16475    1.000
    N968     N        0.00008    0.65841    0.15585    1.000
    N969     N        0.22274    0.69006    0.13524    1.000
    Si970    Si       0.17906    0.66575    0.22010    1.000
    Si971    Si       0.14406    0.68906    0.13163    1.000
    Si972    Si       0.03127    0.71143    0.08219    1.000
    Si973    Si       0.19745    0.71544    0.10355    1.000
    N974     N        0.99363    0.71555    0.20895    1.000
    N975     N        0.04856    0.66949    0.32892    1.000
    N976     N        0.09287    0.66675    0.27345    1.000
    Si977    Si       0.03107    0.70581    0.31170    1.000
    Si978    Si       0.08442    0.70789    0.26352    1.000
    N979     N        0.04185    0.71289    0.26959    1.000
    Si980    Si       0.05705    0.65960    0.37190    1.000
    Si981    Si       0.16342    0.67401    0.33339    1.000
    N982     N        0.20282    0.68072    0.31725    1.000
    Si983    Si       0.20369    0.69197    0.27577    1.000
    N984     N        0.16194    0.69346    0.26656    1.000
    N985     N        0.13699    0.70756    0.34281    1.000
    Si986    Si       0.13477    0.65933    0.27036    1.000
    N987     N        0.21101    0.65516    0.25182    1.000
    N988     N        0.02972    0.68074    0.48456    1.000
    N989     N        0.03339    0.68433    0.39795    1.000
    N990     N        0.09246    0.66933    0.46202    1.000
    Si991    Si       0.99429    0.67731    0.41605    1.000
    N992     N        0.10053    0.66031    0.37713    1.000
    N993     N        0.22636    0.70268    0.48756    1.000
    N994     N        0.13337    0.70040    0.41785    1.000
    N995     N        0.16499    0.67386    0.47589    1.000
    Si996    Si       0.11463    0.70039    0.37905    1.000
    Si997    Si       0.19645    0.69604    0.45581    1.000
    Si998    Si       0.13093    0.66924    0.44645    1.000
    N999     N        0.21646    0.67645    0.42251    1.000
    Si1000   Si       0.24092    0.65975    0.32455    1.000
    N1001    N        0.16889    0.65282    0.37248    1.000
    N1002    N        0.09684    0.69073    0.57375    1.000
    N1003    N        0.02006    0.68562    0.60587    1.000
    Si1004   Si       0.07140    0.67408    0.49741    1.000
    Si1005   Si       0.17735    0.66406    0.58185    1.000
    N1006    N        0.16739    0.70718    0.58348    1.000
    N1007    N        0.22066    0.66242    0.58471    1.000
    Si1008   Si       0.23599    0.66228    0.50268    1.000
    N1009    N        0.00001    0.66585    0.72518    1.000
    Si1010   Si       0.02458    0.66228    0.64126    1.000
    Si1011   Si       0.04156    0.67841    0.71336    1.000
    N1012    N        0.03958    0.69396    0.67043    1.000
    N1013    N        0.12605    0.70803    0.63569    1.000
    N1014    N        0.22827    0.71085    0.67843    1.000
    N1015    N        0.20164    0.70131    0.74137    1.000
    Si1016   Si       0.14402    0.67066    0.64668    1.000
    N1017    N        0.16534    0.67904    0.68449    1.000
    Si1018   Si       0.19066    0.71170    0.69969    1.000
    N1019    N        0.05141    0.71130    0.73900    1.000
    N1020    N        0.02470    0.69731    0.84810    1.000
    Si1021   Si       0.00863    0.66529    0.82357    1.000
    N1022    N        0.10883    0.70236    0.82853    1.000
    N1023    N        0.11798    0.69517    0.75585    1.000
    N1024    N        0.07761    0.66493    0.87520    1.000
    Si1025   Si       0.11693    0.67124    0.85578    1.000
    N1026    N        0.21542    0.70499    0.81382    1.000
    Si1027   Si       0.13692    0.69850    0.79566    1.000
    N1028    N        0.15488    0.66407    0.81402    1.000
    Si1029   Si       0.22833    0.66970    0.75489    1.000
    Si1030   Si       0.19804    0.66634    0.81990    1.000
    Si1031   Si       0.05368    0.69972    0.88279    1.000
    N1032    N        0.04756    0.69871    0.92533    1.000
    Si1033   Si       0.07872    0.68815    0.95643    1.000
    Si1034   Si       0.00973    0.71218    0.94245    1.000
    N1035    N        0.98945    0.67514    0.95661    1.000
    N1036    N        0.05787    0.67723    0.99353    1.000
    Si1037   Si       0.14881    0.68154    0.93419    1.000
    N1038    N        0.22509    0.70552    0.96556    1.000
    Si1039   Si       0.21710    0.67150    0.99248    1.000
    N1040    N        0.11746    0.66636    0.96061    1.000
    N1041    N        0.14242    0.67514    0.88979    1.000
    N1042    N        0.20425    0.65671    0.86281    1.000
    Si1043   Si       0.08534    0.75184    0.06002    1.000
    N1044    N        0.05519    0.72310    0.04595    1.000
    N1045    N        0.00188    0.74201    0.08860    1.000
    N1046    N        0.07066    0.76946    0.09708    1.000
    N1047    N        0.17208    0.72411    0.14004    1.000
    N1048    N        0.12651    0.73628    0.05381    1.000
    N1049    N        0.20735    0.75364    0.08386    1.000
    Si1050   Si       0.15553    0.76182    0.02917    1.000
    N1051    N        0.19349    0.74516    0.01547    1.000
    Si1052   Si       0.22686    0.75113    0.04374    1.000
    Si1053   Si       0.20701    0.71668    0.17261    1.000
    N1054    N        0.02131    0.76045    0.15138    1.000
    Si1055   Si       0.06066    0.75261    0.13450    1.000
    N1056    N        0.09375    0.75260    0.16511    1.000
    N1057    N        0.04609    0.76603    0.22561    1.000
    Si1058   Si       0.01920    0.73520    0.23997    1.000
    Si1059   Si       0.09318    0.71747    0.19012    1.000
    N1060    N        0.11089    0.71397    0.22820    1.000
    Si1061   Si       0.15365    0.72454    0.23588    1.000
    Si1062   Si       0.17423    0.76756    0.15531    1.000
    N1063    N        0.21402    0.76073    0.17230    1.000
    N1064    N        0.13162    0.77415    0.99545    1.000
    N1065    N        0.04074    0.74623    0.32868    1.000
    N1066    N        0.10084    0.73691    0.29077    1.000
    Si1067   Si       0.00190    0.75141    0.34660    1.000
    Si1068   Si       0.07664    0.76680    0.31064    1.000
    N1069    N        0.15924    0.76504    0.24687    1.000
    Si1070   Si       0.13377    0.74150    0.31909    1.000
    N1071    N        0.17238    0.75916    0.31556    1.000
    N1072    N        0.22952    0.72421    0.26223    1.000
    N1073    N        0.00394    0.74569    0.38930    1.000
    N1074    N        0.04831    0.73303    0.44525    1.000
    Si1075   Si       0.07983    0.74070    0.47503    1.000
    N1076    N        0.08117    0.72933    0.38281    1.000
    Si1077   Si       0.04102    0.72879    0.40228    1.000
    Si1078   Si       0.01576    0.71729    0.47027    1.000
    Si1079   Si       0.14401    0.73959    0.43180    1.000
    N1080    N        0.13506    0.77171    0.40059    1.000
    N1081    N        0.18766    0.73367    0.43608    1.000
    N1082    N        0.12060    0.75014    0.46573    1.000
    Si1083   Si       0.22061    0.75044    0.41329    1.000
    Si1084   Si       0.09547    0.76911    0.38180    1.000
    Si1085   Si       0.00192    0.74137    0.54220    1.000
    N1086    N        0.04029    0.73648    0.56313    1.000
    Si1087   Si       0.03084    0.72800    0.60433    1.000
    Si1088   Si       0.08030    0.72519    0.55243    1.000
    N1089    N        0.01487    0.74813    0.50030    1.000
    N1090    N        0.11047    0.75381    0.57222    1.000
    N1091    N        0.08123    0.71565    0.51107    1.000
    N1092    N        0.17176    0.74728    0.68136    1.000
    Si1093   Si       0.23526    0.73828    0.51138    1.000
    N1094    N        0.22635    0.72304    0.55253    1.000
    Si1095   Si       0.19656    0.73831    0.57922    1.000
    N1096    N        0.21760    0.75439    0.61286    1.000
    N1097    N        0.17202    0.77037    0.55964    1.000
    Si1098   Si       0.12574    0.71732    0.59404    1.000
    N1099    N        0.00712    0.75914    0.62111    1.000
    Si1100   Si       0.09216    0.72504    0.73462    1.000
    N1101    N        0.06634    0.74030    0.62545    1.000
    Si1102   Si       0.06192    0.73144    0.66834    1.000
    N1103    N        0.09938    0.73308    0.69261    1.000
    Si1104   Si       0.13272    0.73958    0.66467    1.000
    Si1105   Si       0.23348    0.74541    0.65276    1.000
    Si1106   Si       0.08851    0.73903    0.83274    1.000
    N1107    N        0.05602    0.74416    0.80490    1.000
    Si1108   Si       0.01931    0.73530    0.82785    1.000
    Si1109   Si       0.03454    0.73927    0.76624    1.000
    N1110    N        0.08805    0.76513    0.74629    1.000
    N1111    N        0.00023    0.72583    0.78971    1.000
    N1112    N        0.01120    0.76691    0.85607    1.000
    N1113    N        0.22173    0.76348    0.77843    1.000
    Si1114   Si       0.20055    0.72562    0.77807    1.000
    N1115    N        0.15987    0.73344    0.79189    1.000
    N1116    N        0.18215    0.76703    0.85108    1.000
    Si1117   Si       0.15754    0.77014    0.81693    1.000
    N1118    N        0.07008    0.73881    0.87130    1.000
    N1119    N        0.09084    0.73157    0.95702    1.000
    N1120    N        0.02368    0.73473    0.97575    1.000
    Si1121   Si       0.05636    0.75731    0.96027    1.000
    N1122    N        0.15790    0.72082    0.95286    1.000
    N1123    N        0.20362    0.77248    0.95076    1.000
    Si1124   Si       0.19543    0.73623    0.97184    1.000
    Si1125   Si       0.12714    0.75078    0.95852    1.000
    N1126    N        0.01479    0.80699    0.06088    1.000
    Si1127   Si       0.05798    0.80686    0.07425    1.000
    N1128    N        0.08523    0.79377    0.04348    1.000
    Si1129   Si       0.10075    0.80520    0.00406    1.000
    N1130    N        0.16229    0.79663    0.05342    1.000
    Si1131   Si       0.19178    0.79328    0.08687    1.000
    N1132    N        0.21478    0.82789    0.08262    1.000
    Si1133   Si       0.22715    0.82786    0.04015    1.000
    N1134    N        0.17025    0.79711    0.12382    1.000
    Si1135   Si       0.03002    0.78604    0.18678    1.000
    N1136    N        0.06359    0.80704    0.17209    1.000
    N1137    N        0.10513    0.79573    0.22344    1.000
    Si1138   Si       0.10730    0.79214    0.17963    1.000
    N1139    N        0.99729    0.80284    0.20898    1.000
    Si1140   Si       0.06731    0.79863    0.24316    1.000
    Si1141   Si       0.15014    0.80378    0.22622    1.000
    N1142    N        0.18981    0.81519    0.24445    1.000
    N1143    N        0.15496    0.79479    0.18287    1.000
    Si1144   Si       0.15755    0.82793    0.15004    1.000
    N1145    N        0.07112    0.80127    0.28682    1.000
    N1146    N        0.20394    0.77773    0.37902    1.000
    Si1147   Si       0.12479    0.81417    0.32877    1.000
    Si1148   Si       0.17833    0.79219    0.28186    1.000
    N1149    N        0.21246    0.80616    0.30730    1.000
    N1150    N        0.14478    0.81927    0.29111    1.000
    N1151    N        0.15745    0.82237    0.35615    1.000
    Si1152   Si       0.20837    0.77311    0.33577    1.000
    N1153    N        0.06214    0.79140    0.39924    1.000
    Si1154   Si       0.03194    0.82259    0.40726    1.000
    Si1155   Si       0.02545    0.78425    0.48079    1.000
    N1156    N        0.06861    0.78141    0.48445    1.000
    Si1157   Si       0.10982    0.79180    0.48030    1.000
    N1158    N        0.99183    0.81034    0.39334    1.000
    Si1159   Si       0.16725    0.79715    0.38847    1.000
    N1160    N        0.11161    0.82733    0.45826    1.000
    Si1161   Si       0.22029    0.82076    0.41971    1.000
    N1162    N        0.17724    0.81954    0.42326    1.000
    N1163    N        0.10716    0.77379    0.33993    1.000
    N1164    N        0.01125    0.81459    0.51149    1.000
    N1165    N        0.06134    0.80552    0.61205    1.000
    N1166    N        0.11809    0.81539    0.58275    1.000
    N1167    N        0.13049    0.80348    0.51504    1.000
    Si1168   Si       0.20047    0.79801    0.54005    1.000
    Si1169   Si       0.13183    0.78568    0.55558    1.000
    N1170    N        0.21707    0.77888    0.50395    1.000
    N1171    N        0.05428    0.82297    0.72383    1.000
    Si1172   Si       0.03257    0.78847    0.63973    1.000
    Si1173   Si       0.02116    0.80433    0.70054    1.000
    Si1174   Si       0.08108    0.78345    0.70894    1.000
    N1175    N        0.10893    0.81525    0.69594    1.000
    N1176    N        0.01681    0.82498    0.65964    1.000
    N1177    N        0.18285    0.79794    0.72808    1.000
    Si1178   Si       0.18604    0.78746    0.68664    1.000
    N1179    N        0.12266    0.77628    0.64135    1.000
    N1180    N        0.16909    0.81890    0.66356    1.000
    Si1181   Si       0.12751    0.81552    0.65549    1.000
    N1182    N        0.22822    0.78351    0.67445    1.000
    N1183    N        0.23565    0.79970    0.56404    1.000
    Si1184   Si       0.09250    0.77353    0.60826    1.000
    N1185    N        0.04960    0.77350    0.67936    1.000
    Si1186   Si       0.09498    0.81022    0.82958    1.000
    Si1187   Si       0.04123    0.81213    0.76547    1.000
    N1188    N        0.06745    0.82379    0.79683    1.000
    N1189    N        0.07204    0.80890    0.86779    1.000
    N1190    N        0.24077    0.79954    0.83622    1.000
    N1191    N        0.11474    0.77225    0.82761    1.000
    N1192    N        0.01863    0.77608    0.74920    1.000
    N1193    N        0.23439    0.82354    0.77167    1.000
    N1194    N        0.16947    0.80891    0.79917    1.000
    Si1195   Si       0.19803    0.80008    0.76761    1.000
    Si1196   Si       0.21430    0.78852    0.86891    1.000
    Si1197   Si       0.13060    0.82344    0.93647    1.000
    N1198    N        0.03832    0.77363    0.92332    1.000
    N1199    N        0.06606    0.79227    0.98139    1.000
    Si1200   Si       0.99574    0.77918    0.93395    1.000
    Si1201   Si       0.04893    0.77582    0.88185    1.000
    N1202    N        0.98808    0.79939    0.96984    1.000
    N1203    N        0.12555    0.78111    0.92945    1.000
    Si1204   Si       0.20234    0.81354    0.93586    1.000
    N1205    N        0.19405    0.81859    0.89269    1.000
    Si1206   Si       0.05051    0.87825    0.09393    1.000
    N1207    N        0.03033    0.87528    0.05483    1.000
    Si1208   Si       0.99761    0.84693    0.05291    1.000
    N1209    N        0.06107    0.83645    0.10600    1.000
    Si1210   Si       0.03710    0.88809    0.01471    1.000
    N1211    N        0.19157    0.84858    0.02257    1.000
    N1212    N        0.15804    0.86607    0.07792    1.000
    Si1213   Si       0.19637    0.86454    0.10031    1.000
    N1214    N        0.12390    0.84236    0.01981    1.000
    Si1215   Si       0.21445    0.88485    0.01264    1.000
    Si1216   Si       0.15748    0.83794    0.04599    1.000
    N1217    N        0.00532    0.87394    0.20075    1.000
    Si1218   Si       0.04675    0.87408    0.21648    1.000
    N1219    N        0.07285    0.87138    0.18380    1.000
    Si1220   Si       0.07281    0.84353    0.14951    1.000
    N1221    N        0.05135    0.83920    0.24153    1.000
    Si1222   Si       0.99671    0.88805    0.15874    1.000
    N1223    N        0.99045    0.84100    0.15248    1.000
    Si1224   Si       0.11514    0.86644    0.19133    1.000
    N1225    N        0.11643    0.83741    0.15519    1.000
    Si1226   Si       0.22094    0.83976    0.22790    1.000
    N1227    N        0.18465    0.86036    0.14348    1.000
    N1228    N        0.13582    0.84858    0.22419    1.000
    N1229    N        0.20080    0.87589    0.21316    1.000
    Si1230   Si       0.20761    0.88598    0.17290    1.000
    N1231    N        0.03698    0.86033    0.31148    1.000
    Si1232   Si       0.06178    0.86583    0.34910    1.000
    N1233    N        0.10276    0.87075    0.28507    1.000
    Si1234   Si       0.06545    0.84678    0.28354    1.000
    N1235    N        0.09916    0.84159    0.34829    1.000
    Si1236   Si       0.99730    0.87625    0.31550    1.000
    N1237    N        0.21732    0.87319    0.33052    1.000
    Si1238   Si       0.14242    0.85683    0.26844    1.000
    Si1239   Si       0.13549    0.86076    0.36534    1.000
    N1240    N        0.17438    0.88285    0.27858    1.000
    Si1241   Si       0.23553    0.84263    0.30491    1.000
    Si1242   Si       0.23934    0.88400    0.36597    1.000
    Si1243   Si       0.07610    0.85250    0.46079    1.000
    N1244    N        0.03600    0.86061    0.38306    1.000
    Si1245   Si       0.01729    0.85300    0.48933    1.000
    N1246    N        0.03708    0.83721    0.44780    1.000
    N1247    N        0.23229    0.84324    0.45659    1.000
    Si1248   Si       0.20826    0.87253    0.47984    1.000
    Si1249   Si       0.14767    0.84444    0.44050    1.000
    N1250    N        0.16662    0.86238    0.47661    1.000
    N1251    N        0.13838    0.87191    0.40745    1.000
    N1252    N        0.07059    0.87162    0.57507    1.000
    N1253    N        0.00092    0.87313    0.59958    1.000
    Si1254   Si       0.08098    0.88001    0.53375    1.000
    Si1255   Si       0.08763    0.83967    0.59945    1.000
    N1256    N        0.00822    0.88109    0.53030    1.000
    N1257    N        0.06160    0.85793    0.50177    1.000
    N1258    N        0.12394    0.87686    0.52719    1.000
    Si1259   Si       0.20079    0.87334    0.54937    1.000
    Si1260   Si       0.14735    0.84377    0.51422    1.000
    N1261    N        0.21822    0.86526    0.58769    1.000
    N1262    N        0.23145    0.87310    0.51733    1.000
    N1263    N        0.18079    0.83635    0.53912    1.000
    Si1264   Si       0.09032    0.84838    0.71698    1.000
    N1265    N        0.10753    0.85250    0.63686    1.000
    N1266    N        0.08518    0.88653    0.69530    1.000
    Si1267   Si       0.99007    0.84831    0.63459    1.000
    Si1268   Si       0.09344    0.89012    0.65093    1.000
    N1269    N        0.17015    0.87086    0.71212    1.000
    Si1270   Si       0.21793    0.88188    0.62703    1.000
    N1271    N        0.17838    0.89166    0.64448    1.000
    Si1272   Si       0.18410    0.85879    0.67386    1.000
    N1273    N        0.22942    0.85854    0.66469    1.000
    Si1274   Si       0.09120    0.85942    0.79222    1.000
    N1275    N        0.11059    0.85622    0.75373    1.000
    N1276    N        0.11900    0.84465    0.82280    1.000
    Si1277   Si       0.16108    0.84918    0.81302    1.000
    N1278    N        0.17674    0.87079    0.84909    1.000
    N1279    N        0.17160    0.87999    0.78431    1.000
    Si1280   Si       0.14889    0.87928    0.74636    1.000
    N1281    N        0.06911    0.88337    0.87550    1.000
    Si1282   Si       0.08434    0.84514    0.88963    1.000
    N1283    N        0.05007    0.84434    0.92164    1.000
    N1284    N        0.99734    0.86878    0.88245    1.000
    Si1285   Si       0.03446    0.88130    0.90124    1.000
    N1286    N        0.10203    0.83948    0.96335    1.000
    N1287    N        0.03198    0.85047    0.99098    1.000
    Si1288   Si       0.99005    0.83912    0.98368    1.000
    Si1289   Si       0.11360    0.87016    0.99081    1.000
    N1290    N        0.16959    0.83531    0.95214    1.000
    N1291    N        0.12675    0.84648    0.90034    1.000
    Si1292   Si       0.16821    0.85246    0.88809    1.000
    Si1293   Si       0.17842    0.87931    0.94944    1.000
    N1294    N        0.18362    0.88980    0.90684    1.000
    N1295    N        0.21439    0.89178    0.96965    1.000
    N1296    N        0.99986    0.82809    0.77770    1.000
    Si1297   Si       0.05755    0.83112    0.96206    1.000
    Si1298   Si       0.09286    0.93072    0.02333    1.000
    N1299    N        0.08794    0.90311    0.09235    1.000
    Si1300   Si       0.09929    0.93787    0.11639    1.000
    N1301    N        0.07983    0.89253    0.00928    1.000
    N1302    N        0.05624    0.94625    0.03873    1.000
    N1303    N        0.13134    0.92110    0.04255    1.000
    N1304    N        0.20417    0.92006    0.03617    1.000
    Si1305   Si       0.12975    0.89960    0.08263    1.000
    Si1306   Si       0.16873    0.94370    0.03139    1.000
    N1307    N        0.14113    0.92798    0.11555    1.000
    Si1308   Si       0.23512    0.92341    0.06660    1.000
    N1309    N        0.22793    0.89543    0.09818    1.000
    N1310    N        0.02955    0.89219    0.12831    1.000
    N1311    N        0.00268    0.93307    0.16816    1.000
    Si1312   Si       0.03402    0.93410    0.13600    1.000
    N1313    N        0.04962    0.90859    0.24281    1.000
    N1314    N        0.07244    0.94870    0.14690    1.000
    Si1315   Si       0.15780    0.93179    0.15488    1.000
    N1316    N        0.16042    0.93299    0.23940    1.000
    N1317    N        0.19961    0.92825    0.16779    1.000
    N1318    N        0.13495    0.90041    0.17545    1.000
    Si1319   Si       0.19221    0.90435    0.24531    1.000
    N1320    N        0.07836    0.90548    0.34519    1.000
    N1321    N        0.09797    0.94020    0.28872    1.000
    Si1322   Si       0.10875    0.90412    0.31351    1.000
    Si1323   Si       0.00894    0.91417    0.25935    1.000
    N1324    N        0.99699    0.90488    0.34784    1.000
    N1325    N        0.01229    0.93974    0.29792    1.000
    Si1326   Si       0.07398    0.94646    0.25177    1.000
    Si1327   Si       0.99515    0.94911    0.33557    1.000
    N1328    N        0.20149    0.93843    0.31538    1.000
    Si1329   Si       0.18476    0.89862    0.31772    1.000
    N1330    N        0.14694    0.89311    0.33790    1.000
    N1331    N        0.23151    0.92353    0.25091    1.000
    Si1332   Si       0.07183    0.93362    0.37615    1.000
    Si1333   Si       0.05292    0.91464    0.44509    1.000
    N1334    N        0.03984    0.92571    0.40459    1.000
    N1335    N        0.01792    0.89940    0.46871    1.000
    N1336    N        0.10696    0.93855    0.40195    1.000
    Si1337   Si       0.01003    0.89401    0.38983    1.000
    N1338    N        0.08737    0.89075    0.44593    1.000
    Si1339   Si       0.20204    0.92816    0.42474    1.000
    Si1340   Si       0.12404    0.90773    0.42706    1.000
    N1341    N        0.22681    0.90448    0.45263    1.000
    N1342    N        0.16254    0.92430    0.43851    1.000
    N1343    N        0.21671    0.91514    0.38506    1.000
    N1344    N        0.06708    0.92259    0.52520    1.000
    N1345    N        0.03849    0.93632    0.58289    1.000
    Si1346   Si       0.02575    0.91711    0.51017    1.000
    Si1347   Si       0.03973    0.89399    0.59672    1.000
    Si1348   Si       0.07492    0.95101    0.56330    1.000
    N1349    N        0.11803    0.93519    0.56506    1.000
    N1350    N        0.18233    0.91164    0.54339    1.000
    Si1351   Si       0.14053    0.91676    0.53364    1.000
    Si1352   Si       0.20859    0.94519    0.53436    1.000
    N1353    N        0.12927    0.94301    0.50183    1.000
    N1354    N        0.13372    0.92111    0.74499    1.000
    N1355    N        0.02059    0.91191    0.69802    1.000
    Si1356   Si       0.02879    0.92748    0.65812    1.000
    Si1357   Si       0.06409    0.92169    0.70632    1.000
    N1358    N        0.05190    0.89672    0.63725    1.000
    Si1359   Si       0.23291    0.94734    0.72600    1.000
    N1360    N        0.17210    0.94940    0.68548    1.000
    N1361    N        0.06136    0.95444    0.67385    1.000
    N1362    N        0.11588    0.92681    0.64573    1.000
    Si1363   Si       0.16588    0.94694    0.72904    1.000
    Si1364   Si       0.15784    0.92959    0.64905    1.000
    Si1365   Si       0.09892    0.93033    0.77068    1.000
    N1366    N        0.02739    0.92242    0.84567    1.000
    N1367    N        0.08606    0.90139    0.80380    1.000
    Si1368   Si       0.07112    0.91231    0.84260    1.000
    N1369    N        0.99609    0.93640    0.75516    1.000
    N1370    N        0.14282    0.89436    0.96849    1.000
    N1371    N        0.09692    0.94654    0.86004    1.000
    Si1372   Si       0.13596    0.93657    0.96534    1.000
    Si1373   Si       0.20033    0.91027    0.78723    1.000
    N1374    N        0.19913    0.93128    0.82621    1.000
    N1375    N        0.20123    0.93487    0.75180    1.000
    Si1376   Si       0.19286    0.90877    0.86647    1.000
    Si1377   Si       0.99469    0.90809    0.95310    1.000
    N1378    N        0.02458    0.91647    0.92224    1.000
    N1379    N        0.01171    0.91838    0.99325    1.000
    N1380    N        0.23488    0.92036    0.87632    1.000
    N1381    N        0.06455    0.93813    0.74733    1.000
    N1382    N        0.09464    0.97028    0.08908    1.000
    Si1383   Si       0.05419    0.97027    0.07518    1.000
    Si1384   Si       0.01902    0.95445    0.01689    1.000
    N1385    N        0.02093    0.95517    0.10118    1.000
    N1386    N        0.15622    0.98270    0.04970    1.000
    Si1387   Si       0.12993    0.99554    0.08272    1.000
    N1388    N        0.15933    0.99774    0.11721    1.000
    N1389    N        0.21285    0.99611    0.07471    1.000
    N1390    N        0.21189    0.00102    0.00220    1.000
    Si1391   Si       0.20101    0.00390    0.11481    1.000
    Si1392   Si       0.08078    0.97878    0.17607    1.000
    N1393    N        0.09290    0.95890    0.21382    1.000
    N1394    N        0.04686    0.00144    0.19122    1.000
    N1395    N        0.99396    0.95043    0.24063    1.000
    Si1396   Si       0.13713    0.96235    0.21857    1.000
    N1397    N        0.14247    0.00281    0.23637    1.000
    Si1398   Si       0.14555    0.00596    0.15721    1.000
    N1399    N        0.22392    0.98925    0.14960    1.000
    Si1400   Si       0.22153    0.96097    0.18391    1.000
    N1401    N        0.21196    0.98203    0.22038    1.000
    N1402    N        0.14665    0.96796    0.17670    1.000
    Si1403   Si       0.18434    0.00759    0.24261    1.000
    Si1404   Si       0.00702    0.97586    0.27211    1.000
    N1405    N        0.08343    0.97339    0.35432    1.000
    N1406    N        0.01834    0.97109    0.36536    1.000
    N1407    N        0.04951    0.98207    0.26145    1.000
    Si1408   Si       0.10351    0.97360    0.31433    1.000
    Si1409   Si       0.05393    0.00415    0.36743    1.000
    N1410    N        0.16806    0.00029    0.46019    1.000
    Si1411   Si       0.18166    0.97728    0.31867    1.000
    N1412    N        0.20388    0.99326    0.35200    1.000
    N1413    N        0.14265    0.96825    0.33431    1.000
    N1414    N        0.18640    0.00618    0.28681    1.000
    Si1415   Si       0.12386    0.97020    0.37466    1.000
    Si1416   Si       0.01903    0.97558    0.47476    1.000
    Si1417   Si       0.02236    0.96590    0.40802    1.000
    N1418    N        0.05325    0.99594    0.41058    1.000
    N1419    N        0.10437    0.99444    0.47934    1.000
    N1420    N        0.99213    0.97271    0.44059    1.000
    Si1421   Si       0.07369    0.00004    0.44914    1.000
    N1422    N        0.05740    0.95372    0.46627    1.000
    Si1423   Si       0.22221    0.95779    0.37156    1.000
    N1424    N        0.20875    0.96989    0.41061    1.000
    Si1425   Si       0.17885    0.99948    0.41828    1.000
    N1426    N        0.14070    0.00232    0.39732    1.000
    N1427    N        0.07036    0.98710    0.53388    1.000
    Si1428   Si       0.01304    0.96712    0.59659    1.000
    N1429    N        0.09238    0.97612    0.60232    1.000
    N1430    N        0.03361    0.00469    0.59373    1.000
    N1431    N        0.00719    0.95450    0.50992    1.000
    Si1432   Si       0.08560    0.95608    0.49948    1.000
    N1433    N        0.21662    0.96699    0.57014    1.000
    Si1434   Si       0.13614    0.96717    0.58895    1.000
    N1435    N        0.18474    0.98154    0.51887    1.000
    N1436    N        0.14983    0.00337    0.56993    1.000
    Si1437   Si       0.19508    0.00397    0.55903    1.000
    Si1438   Si       0.21248    0.95539    0.60905    1.000
    N1439    N        0.16847    0.95247    0.61523    1.000
    Si1440   Si       0.09251    0.96481    0.64590    1.000
    N1441    N        0.01491    0.99266    0.73299    1.000
    N1442    N        0.15249    0.98638    0.73999    1.000
    Si1443   Si       0.19592    0.98510    0.67371    1.000
    N1444    N        0.22786    0.97836    0.64287    1.000
    N1445    N        0.11968    0.99322    0.66159    1.000
    N1446    N        0.21838    0.98530    0.71113    1.000
    N1447    N        0.00273    0.95448    0.63704    1.000
    Si1448   Si       0.14664    0.98436    0.49482    1.000
    N1449    N        0.04106    0.97873    0.79710    1.000
    Si1450   Si       0.03129    0.96202    0.75849    1.000
    Si1451   Si       0.01991    0.96279    0.82977    1.000
    Si1452   Si       0.11399    0.97293    0.83269    1.000
    N1453    N        0.02307    0.98097    0.86786    1.000
    N1454    N        0.11471    0.96317    0.78979    1.000
    Si1455   Si       0.19150    0.97096    0.84332    1.000
    N1456    N        0.15311    0.98735    0.83402    1.000
    Si1457   Si       0.12662    0.00250    0.77028    1.000
    N1458    N        0.22106    0.00379    0.84370    1.000
    N1459    N        0.18924    0.96098    0.88596    1.000
    N1460    N        0.00050    0.98208    0.92665    1.000
    Si1461   Si       0.07544    0.98347    0.96502    1.000
    N1462    N        0.06805    0.96900    0.92416    1.000
    Si1463   Si       0.02910    0.95631    0.90630    1.000
    Si1464   Si       0.10286    0.96357    0.89876    1.000
    N1465    N        0.09926    0.95216    0.98429    1.000
    N1466    N        0.03616    0.98812    0.99146    1.000
    Si1467   Si       0.00502    0.00239    0.96358    1.000
    N1468    N        0.22432    0.95629    0.94663    1.000
    N1469    N        0.16698    0.95374    0.98817    1.000
    Si1470   Si       0.15991    0.98195    0.91054    1.000
    N1471    N        0.12484    0.00077    0.89377    1.000
    Si1472   Si       0.23030    0.95468    0.90378    1.000
    Si1473   Si       0.19329    0.98017    0.96883    1.000
    Si1474   Si       0.98975    0.00487    0.88955    1.000
    N1475    N        0.17199    0.00841    0.94360    1.000
    N1476    N        0.13579    0.94900    0.92591    1.000
    Si1477   Si       0.31061    0.02938    0.09745    1.000
    N1478    N        0.26169    0.02480    0.03525    1.000
    N1479    N        0.31048    0.05833    0.06443    1.000
    N1480    N        0.27023    0.01709    0.10474    1.000
    Si1481   Si       0.45917    0.00652    0.12531    1.000
    Si1482   Si       0.35722    0.06435    0.99722    1.000
    Si1483   Si       0.45869    0.05484    0.21033    1.000
    N1484    N        0.45902    0.04280    0.03043    1.000
    N1485    N        0.39234    0.04260    0.01614    1.000
    Si1486   Si       0.43080    0.05300    0.99835    1.000
    N1487    N        0.33073    0.05135    0.13102    1.000
    Si1488   Si       0.32316    0.03479    0.18134    1.000
    Si1489   Si       0.25993    0.01375    0.14733    1.000
    N1490    N        0.31758    0.02973    0.22718    1.000
    N1491    N        0.24699    0.05252    0.16677    1.000
    N1492    N        0.36062    0.01361    0.17350    1.000
    N1493    N        0.41665    0.05689    0.22528    1.000
    N1494    N        0.43300    0.03104    0.15064    1.000
    N1495    N        0.49275    0.02416    0.20258    1.000
    Si1496   Si       0.27093    0.06616    0.04423    1.000
    Si1497   Si       0.25296    0.01032    0.99565    1.000
    N1498    N        0.27683    0.04496    0.28902    1.000
    Si1499   Si       0.32700    0.04030    0.35556    1.000
    N1500    N        0.24304    0.05709    0.35625    1.000
    Si1501   Si       0.29410    0.05891    0.25034    1.000
    N1502    N        0.36507    0.01572    0.35875    1.000
    N1503    N        0.43121    0.01949    0.35593    1.000
    N1504    N        0.40778    0.03726    0.30120    1.000
    Si1505   Si       0.41381    0.02823    0.25779    1.000
    N1506    N        0.48079    0.05752    0.31847    1.000
    Si1507   Si       0.43990    0.05301    0.32877    1.000
    Si1508   Si       0.35395    0.02304    0.45371    1.000
    N1509    N        0.32201    0.05353    0.45459    1.000
    N1510    N        0.30950    0.06790    0.38581    1.000
    N1511    N        0.39465    0.01799    0.42742    1.000
    Si1512   Si       0.42533    0.03938    0.44943    1.000
    N1513    N        0.43922    0.02699    0.49040    1.000
    N1514    N        0.37752    0.04647    0.48326    1.000
    N1515    N        0.45850    0.03441    0.42345    1.000
    Si1516   Si       0.48982    0.06396    0.42195    1.000
    N1517    N        0.34288    0.06819    0.32284    1.000
    Si1518   Si       0.45813    0.00901    0.38773    1.000
    Si1519   Si       0.29973    0.03032    0.58185    1.000
    Si1520   Si       0.25350    0.03880    0.51609    1.000
    N1521    N        0.27314    0.05210    0.55577    1.000
    N1522    N        0.33088    0.02147    0.55218    1.000
    N1523    N        0.31051    0.05902    0.61236    1.000
    N1524    N        0.45139    0.04954    0.59371    1.000
    N1525    N        0.38046    0.04420    0.59548    1.000
    Si1526   Si       0.40669    0.03969    0.51517    1.000
    N1527    N        0.48125    0.02310    0.65022    1.000
    Si1528   Si       0.44988    0.01500    0.61896    1.000
    N1529    N        0.31111    0.05591    0.68206    1.000
    N1530    N        0.25145    0.04299    0.64724    1.000
    N1531    N        0.26780    0.02313    0.73033    1.000
    Si1532   Si       0.33646    0.01782    0.68501    1.000
    Si1533   Si       0.29113    0.05717    0.72201    1.000
    N1534    N        0.41773    0.01258    0.64725    1.000
    N1535    N        0.44129    0.02512    0.70846    1.000
    N1536    N        0.37323    0.04341    0.68877    1.000
    Si1537   Si       0.41681    0.04267    0.67893    1.000
    Si1538   Si       0.41521    0.06905    0.58279    1.000
    Si1539   Si       0.49021    0.05036    0.57386    1.000
    N1540    N        0.28552    0.02435    0.82467    1.000
    N1541    N        0.35488    0.03143    0.80682    1.000
    Si1542   Si       0.34202    0.01755    0.76409    1.000
    Si1543   Si       0.28217    0.06032    0.84905    1.000
    N1544    N        0.33097    0.05771    0.74601    1.000
    Si1545   Si       0.39010    0.05386    0.80153    1.000
    N1546    N        0.41585    0.05192    0.76555    1.000
    N1547    N        0.42067    0.04214    0.83258    1.000
    Si1548   Si       0.41941    0.01838    0.86897    1.000
    Si1549   Si       0.42341    0.01420    0.74764    1.000
    N1550    N        0.28650    0.04140    0.88893    1.000
    N1551    N        0.26222    0.03429    0.95713    1.000
    Si1552   Si       0.25386    0.02726    0.91532    1.000
    N1553    N        0.32081    0.04174    0.99006    1.000
    N1554    N        0.38954    0.02084    0.90083    1.000
    N1555    N        0.45580    0.01786    0.89371    1.000
    Si1556   Si       0.48332    0.05065    0.89743    1.000
    Si1557   Si       0.39929    0.04830    0.93186    1.000
    N1558    N        0.42579    0.02827    0.96170    1.000
    N1559    N        0.48613    0.06560    0.93764    1.000
    Si1560   Si       0.28733    0.06452    0.97504    1.000
    Si1561   Si       0.33143    0.09610    0.05932    1.000
    N1562    N        0.34866    0.09964    0.01998    1.000
    Si1563   Si       0.26287    0.11475    0.09413    1.000
    N1564    N        0.25924    0.08121    0.00362    1.000
    N1565    N        0.35668    0.10409    0.09355    1.000
    Si1566   Si       0.40333    0.09715    0.23375    1.000
    N1567    N        0.46554    0.08352    0.17869    1.000
    N1568    N        0.47985    0.10817    0.04129    1.000
    Si1569   Si       0.46101    0.11091    0.08306    1.000
    N1570    N        0.46123    0.07606    0.10835    1.000
    Si1571   Si       0.39238    0.12776    0.10712    1.000
    Si1572   Si       0.46790    0.12507    0.00248    1.000
    Si1573   Si       0.33136    0.09517    0.12949    1.000
    N1574    N        0.28649    0.10108    0.12963    1.000
    Si1575   Si       0.27163    0.08817    0.16785    1.000
    Si1576   Si       0.32904    0.10390    0.21858    1.000
    N1577    N        0.31221    0.07841    0.18571    1.000
    N1578    N        0.24720    0.12269    0.18142    1.000
    N1579    N        0.26184    0.08377    0.23571    1.000
    N1580    N        0.40618    0.10600    0.14549    1.000
    N1581    N        0.47139    0.07505    0.24829    1.000
    Si1582   Si       0.43812    0.07404    0.14643    1.000
    N1583    N        0.37122    0.10726    0.20684    1.000
    Si1584   Si       0.47055    0.11811    0.24208    1.000
    Si1585   Si       0.26062    0.12623    0.22292    1.000
    N1586    N        0.29653    0.12166    0.06590    1.000
    Si1587   Si       0.32227    0.10233    0.30194    1.000
    N1588    N        0.28033    0.10679    0.31734    1.000
    N1589    N        0.32230    0.08998    0.25940    1.000
    Si1590   Si       0.25494    0.07173    0.31519    1.000
    N1591    N        0.48960    0.07831    0.38137    1.000
    N1592    N        0.41400    0.08701    0.33886    1.000
    N1593    N        0.39026    0.10181    0.27457    1.000
    Si1594   Si       0.38416    0.07410    0.30834    1.000
    Si1595   Si       0.26302    0.09948    0.46260    1.000
    Si1596   Si       0.32004    0.08387    0.42488    1.000
    Si1597   Si       0.26439    0.07655    0.38954    1.000
    N1598    N        0.29912    0.11680    0.44626    1.000
    N1599    N        0.26134    0.12034    0.38525    1.000
    N1600    N        0.25486    0.07073    0.43141    1.000
    N1601    N        0.36260    0.10015    0.42877    1.000
    Si1602   Si       0.48645    0.11892    0.39420    1.000
    N1603    N        0.42079    0.08116    0.45595    1.000
    N1604    N        0.48218    0.10563    0.43676    1.000
    Si1605   Si       0.44209    0.11911    0.45466    1.000
    Si1606   Si       0.37770    0.08609    0.46770    1.000
    N1607    N        0.46094    0.12756    0.49449    1.000
    Si1608   Si       0.26572    0.09471    0.54441    1.000
    Si1609   Si       0.34949    0.07509    0.60531    1.000
    N1610    N        0.35380    0.10205    0.57055    1.000
    N1611    N        0.25917    0.07979    0.50165    1.000
    N1612    N        0.48651    0.07566    0.54023    1.000
    N1613    N        0.41472    0.10479    0.60853    1.000
    Si1614   Si       0.45023    0.09760    0.52660    1.000
    N1615    N        0.41745    0.07348    0.53923    1.000
    N1616    N        0.42095    0.08608    0.67569    1.000
    Si1617   Si       0.38315    0.12181    0.54202    1.000
    N1618    N        0.37522    0.11366    0.49976    1.000
    N1619    N        0.26762    0.11082    0.64179    1.000
    Si1620   Si       0.35168    0.08085    0.68592    1.000
    N1621    N        0.26362    0.09051    0.72038    1.000
    N1622    N        0.35864    0.11168    0.71801    1.000
    N1623    N        0.35864    0.09267    0.64395    1.000
    Si1624   Si       0.28503    0.07003    0.64727    1.000
    N1625    N        0.46289    0.10085    0.73677    1.000
    Si1626   Si       0.45420    0.10495    0.69282    1.000
    Si1627   Si       0.39907    0.10918    0.64743    1.000
    Si1628   Si       0.24900    0.12302    0.74452    1.000
    N1629    N        0.30550    0.09663    0.84032    1.000
    Si1630   Si       0.34731    0.09704    0.75765    1.000
    N1631    N        0.25569    0.11212    0.78581    1.000
    Si1632   Si       0.33147    0.12072    0.86619    1.000
    N1633    N        0.42183    0.08261    0.91488    1.000
    N1634    N        0.37133    0.07157    0.95649    1.000
    N1635    N        0.40852    0.10523    0.84963    1.000
    N1636    N        0.37381    0.09456    0.79178    1.000
    N1637    N        0.45156    0.09964    0.80209    1.000
    Si1638   Si       0.44094    0.07970    0.83946    1.000
    Si1639   Si       0.45322    0.07216    0.76917    1.000
    N1640    N        0.47762    0.07189    0.86034    1.000
    Si1641   Si       0.34670    0.10413    0.94228    1.000
    N1642    N        0.35658    0.10445    0.89871    1.000
    N1643    N        0.25517    0.10986    0.90364    1.000
    N1644    N        0.30362    0.09975    0.95349    1.000
    Si1645   Si       0.45375    0.09466    0.94077    1.000
    N1646    N        0.44393    0.09341    0.98293    1.000
    Si1647   Si       0.39859    0.11109    0.89077    1.000
    N1648    N        0.31519    0.15991    0.01486    1.000
    Si1649   Si       0.30486    0.16304    0.05715    1.000
    Si1650   Si       0.35489    0.14073    0.00513    1.000
    Si1651   Si       0.41624    0.17609    0.22839    1.000
    N1652    N        0.44679    0.16102    0.01344    1.000
    N1653    N        0.38136    0.16405    0.03065    1.000
    Si1654   Si       0.42019    0.16431    0.04820    1.000
    N1655    N        0.42296    0.13170    0.07691    1.000
    N1656    N        0.38642    0.16882    0.11703    1.000
    Si1657   Si       0.34369    0.17222    0.12591    1.000
    N1658    N        0.25431    0.16674    0.23347    1.000
    N1659    N        0.30425    0.13745    0.21783    1.000
    N1660    N        0.34498    0.13302    0.14806    1.000
    Si1661   Si       0.24665    0.15565    0.15195    1.000
    Si1662   Si       0.29099    0.17844    0.21421    1.000
    N1663    N        0.38834    0.16975    0.19096    1.000
    Si1664   Si       0.38173    0.13124    0.17369    1.000
    N1665    N        0.43097    0.13343    0.23160    1.000
    N1666    N        0.45815    0.19029    0.13545    1.000
    N1667    N        0.27643    0.18148    0.16926    1.000
    N1668    N        0.31022    0.16547    0.35939    1.000
    Si1669   Si       0.35084    0.16284    0.34526    1.000
    Si1670   Si       0.27604    0.13804    0.34927    1.000
    N1671    N        0.34561    0.13730    0.31055    1.000
    N1672    N        0.24618    0.16722    0.33998    1.000
    Si1673   Si       0.45589    0.16705    0.29750    1.000
    N1674    N        0.41648    0.15327    0.31339    1.000
    Si1675   Si       0.38340    0.14364    0.28666    1.000
    Si1676   Si       0.41667    0.12937    0.34845    1.000
    N1677    N        0.45420    0.13778    0.36905    1.000
    Si1678   Si       0.47572    0.17892    0.37065    1.000
    N1679    N        0.38225    0.18158    0.26113    1.000
    N1680    N        0.47884    0.13296    0.28125    1.000
    N1681    N        0.38066    0.14169    0.37217    1.000
    Si1682   Si       0.37758    0.13904    0.41434    1.000
    N1683    N        0.30124    0.17353    0.48892    1.000
    Si1684   Si       0.24656    0.15012    0.41542    1.000
    N1685    N        0.28043    0.17734    0.41926    1.000
    Si1686   Si       0.30789    0.16058    0.44807    1.000
    N1687    N        0.34726    0.16608    0.42917    1.000
    N1688    N        0.41788    0.14793    0.43319    1.000
    Si1689   Si       0.27760    0.16261    0.52477    1.000
    N1690    N        0.31245    0.15603    0.60412    1.000
    Si1691   Si       0.32779    0.13682    0.56940    1.000
    N1692    N        0.36066    0.15872    0.55069    1.000
    N1693    N        0.46109    0.14791    0.68636    1.000
    Si1694   Si       0.36873    0.15096    0.70404    1.000
    N1695    N        0.47168    0.14126    0.61308    1.000
    N1696    N        0.42932    0.13370    0.54870    1.000
    Si1697   Si       0.43296    0.14081    0.59261    1.000
    Si1698   Si       0.46119    0.15999    0.52980    1.000
    N1699    N        0.41084    0.17521    0.60614    1.000
    Si1700   Si       0.27651    0.15082    0.62686    1.000
    N1701    N        0.28515    0.16942    0.66594    1.000
    N1702    N        0.26895    0.15771    0.72973    1.000
    Si1703   Si       0.24914    0.17346    0.69155    1.000
    N1704    N        0.33585    0.17754    0.71796    1.000
    Si1705   Si       0.43441    0.18263    0.69737    1.000
    N1706    N        0.38873    0.14711    0.66561    1.000
    N1707    N        0.39899    0.17858    0.72110    1.000
    N1708    N        0.29340    0.12734    0.54414    1.000
    N1709    N        0.27643    0.15610    0.83038    1.000
    N1710    N        0.35894    0.14737    0.84409    1.000
    Si1711   Si       0.30674    0.16301    0.74887    1.000
    N1712    N        0.31837    0.12565    0.77319    1.000
    N1713    N        0.41538    0.15999    0.80744    1.000
    Si1714   Si       0.45552    0.14348    0.80231    1.000
    N1715    N        0.47723    0.16115    0.76608    1.000
    N1716    N        0.48400    0.15130    0.83405    1.000
    Si1717   Si       0.38634    0.12819    0.81621    1.000
    Si1718   Si       0.26608    0.14184    0.87069    1.000
    N1719    N        0.30587    0.14788    0.88789    1.000
    N1720    N        0.29141    0.16917    0.94685    1.000
    Si1721   Si       0.27411    0.12923    0.93731    1.000
    N1722    N        0.36361    0.13859    0.96275    1.000
    Si1723   Si       0.29187    0.12339    0.80557    1.000
    Si1724   Si       0.38028    0.17818    0.94218    1.000
    Si1725   Si       0.37545    0.17739    0.87249    1.000
    N1726    N        0.46777    0.13300    0.92965    1.000
    Si1727   Si       0.44235    0.16533    0.91681    1.000
    N1728    N        0.40521    0.15419    0.89684    1.000
    Si1729   Si       0.29007    0.18280    0.98925    1.000
    N1730    N        0.42445    0.18028    0.95268    1.000
    Si1731   Si       0.28907    0.21751    0.08351    1.000
    N1732    N        0.35484    0.23319    0.02876    1.000
    N1733    N        0.26715    0.19049    0.05820    1.000
    N1734    N        0.24825    0.19692    0.99754    1.000
    N1735    N        0.42162    0.22215    0.01280    1.000
    N1736    N        0.42403    0.20304    0.07235    1.000
    Si1737   Si       0.38318    0.20463    0.01658    1.000
    Si1738   Si       0.41944    0.19622    0.11529    1.000
    N1739    N        0.48312    0.23577    0.05345    1.000
    Si1740   Si       0.44001    0.23833    0.04940    1.000
    N1741    N        0.27162    0.22933    0.11950    1.000
    Si1742   Si       0.29384    0.21778    0.15517    1.000
    N1743    N        0.33714    0.20343    0.15532    1.000
    N1744    N        0.24951    0.23322    0.23003    1.000
    N1745    N        0.31461    0.20730    0.23563    1.000
    Si1746   Si       0.35683    0.21176    0.24020    1.000
    N1747    N        0.32180    0.18337    0.09054    1.000
    N1748    N        0.43436    0.21103    0.20484    1.000
    Si1749   Si       0.46794    0.21628    0.23477    1.000
    Si1750   Si       0.37978    0.20843    0.17271    1.000
    Si1751   Si       0.46355    0.21331    0.17002    1.000
    N1752    N        0.40166    0.22889    0.14047    1.000
    N1753    N        0.37216    0.23411    0.20813    1.000
    N1754    N        0.26663    0.20812    0.28545    1.000
    Si1755   Si       0.25328    0.20749    0.32700    1.000
    Si1756   Si       0.28801    0.23358    0.25641    1.000
    N1757    N        0.27055    0.22937    0.36415    1.000
    Si1758   Si       0.35361    0.23792    0.35536    1.000
    N1759    N        0.36137    0.24091    0.27495    1.000
    N1760    N        0.36433    0.20159    0.33153    1.000
    N1761    N        0.45247    0.22230    0.44055    1.000
    Si1762   Si       0.38752    0.21259    0.29525    1.000
    N1763    N        0.42165    0.23408    0.30968    1.000
    Si1764   Si       0.42765    0.23251    0.35369    1.000
    N1765    N        0.44867    0.19005    0.26263    1.000
    N1766    N        0.32466    0.22646    0.45647    1.000
    N1767    N        0.33246    0.22264    0.38995    1.000
    Si1768   Si       0.35177    0.20897    0.42759    1.000
    Si1769   Si       0.29756    0.20009    0.38436    1.000
    N1770    N        0.39258    0.21617    0.43960    1.000
    Si1771   Si       0.42385    0.19123    0.42411    1.000
    Si1772   Si       0.48398    0.20360    0.46754    1.000
    N1773    N        0.43504    0.19949    0.38165    1.000
    N1774    N        0.48296    0.18453    0.32650    1.000
    Si1775   Si       0.26830    0.22789    0.57659    1.000
    N1776    N        0.27520    0.20418    0.53973    1.000
    N1777    N        0.35247    0.22481    0.52034    1.000
    N1778    N        0.34815    0.21631    0.58915    1.000
    Si1779   Si       0.24982    0.22569    0.50798    1.000
    N1780    N        0.28464    0.21732    0.61452    1.000
    Si1781   Si       0.32182    0.19761    0.61695    1.000
    Si1782   Si       0.31523    0.21536    0.49875    1.000
    Si1783   Si       0.36762    0.20078    0.55463    1.000
    Si1784   Si       0.43163    0.20923    0.58664    1.000
    N1785    N        0.40514    0.22374    0.55641    1.000
    N1786    N        0.46033    0.19874    0.50488    1.000
    Si1787   Si       0.48005    0.22029    0.53719    1.000
    N1788    N        0.46516    0.18980    0.56763    1.000
    N1789    N        0.44969    0.24006    0.61324    1.000
    N1790    N        0.28932    0.23039    0.68479    1.000
    Si1791   Si       0.31575    0.19530    0.68251    1.000
    N1792    N        0.34716    0.19685    0.65237    1.000
    Si1793   Si       0.26665    0.23992    0.64927    1.000
    N1794    N        0.41928    0.20748    0.66353    1.000
    Si1795   Si       0.37074    0.20828    0.73630    1.000
    N1796    N        0.45500    0.21385    0.72037    1.000
    Si1797   Si       0.38743    0.18452    0.64312    1.000
    Si1798   Si       0.32956    0.22241    0.77850    1.000
    N1799    N        0.26184    0.23292    0.82701    1.000
    N1800    N        0.29871    0.19285    0.77986    1.000
    Si1801   Si       0.26735    0.19371    0.80897    1.000
    N1802    N        0.36762    0.20580    0.77874    1.000
    N1803    N        0.38776    0.21110    0.84747    1.000
    Si1804   Si       0.39939    0.20024    0.80727    1.000
    N1805    N        0.42470    0.23548    0.80468    1.000
    Si1806   Si       0.48665    0.20069    0.74844    1.000
    N1807    N        0.28787    0.21724    0.89712    1.000
    N1808    N        0.30020    0.22550    0.98211    1.000
    Si1809   Si       0.24632    0.20708    0.89968    1.000
    Si1810   Si       0.25928    0.23800    0.97162    1.000
    Si1811   Si       0.34044    0.23759    0.98742    1.000
    N1812    N        0.35438    0.18734    0.90868    1.000
    N1813    N        0.36540    0.20205    0.97537    1.000
    Si1814   Si       0.44456    0.19633    0.98716    1.000
    N1815    N        0.46879    0.19487    0.90080    1.000
    N1816    N        0.48902    0.23068    0.77894    1.000
    N1817    N        0.48516    0.20631    0.97440    1.000
    Si1818   Si       0.31184    0.18507    0.91220    1.000
    N1819    N        0.26114    0.24438    0.75174    1.000
    N1820    N        0.30153    0.25619    0.06973    1.000
    Si1821   Si       0.34080    0.26257    0.05594    1.000
    Si1822   Si       0.28091    0.29270    0.08679    1.000
    N1823    N        0.24083    0.28835    0.10289    1.000
    N1824    N        0.35098    0.30193    0.03593    1.000
    Si1825   Si       0.38856    0.29583    0.06056    1.000
    N1826    N        0.37055    0.26820    0.08810    1.000
    N1827    N        0.42943    0.28013    0.05353    1.000
    N1828    N        0.47592    0.28205    0.00063    1.000
    Si1829   Si       0.31801    0.28415    0.15954    1.000
    Si1830   Si       0.25188    0.26135    0.19871    1.000
    N1831    N        0.29171    0.25468    0.17628    1.000
    N1832    N        0.30681    0.30062    0.12106    1.000
    N1833    N        0.36020    0.27746    0.16173    1.000
    Si1834   Si       0.44703    0.28530    0.15730    1.000
    Si1835   Si       0.38504    0.26695    0.12875    1.000
    Si1836   Si       0.45029    0.29414    0.23234    1.000
    N1837    N        0.41601    0.29626    0.12663    1.000
    N1838    N        0.47660    0.25273    0.15817    1.000
    Si1839   Si       0.38461    0.27505    0.20097    1.000
    N1840    N        0.42775    0.28372    0.19714    1.000
    N1841    N        0.25402    0.30069    0.21491    1.000
    N1842    N        0.47258    0.25775    0.24976    1.000
    N1843    N        0.29996    0.27459    0.27019    1.000
    N1844    N        0.33382    0.27033    0.33452    1.000
    Si1845   Si       0.33855    0.27548    0.28845    1.000
    Si1846   Si       0.44560    0.26134    0.28746    1.000
    N1847    N        0.42290    0.29294    0.26779    1.000
    N1848    N        0.48240    0.27051    0.30764    1.000
    N1849    N        0.45944    0.25907    0.36788    1.000
    N1850    N        0.39141    0.25397    0.36887    1.000
    Si1851   Si       0.47286    0.24290    0.40739    1.000
    N1852    N        0.29536    0.30320    0.38222    1.000
    Si1853   Si       0.26580    0.26941    0.38494    1.000
    N1854    N        0.26685    0.25498    0.42641    1.000
    Si1855   Si       0.29766    0.26013    0.45702    1.000
    N1856    N        0.31758    0.29831    0.45528    1.000
    Si1857   Si       0.40000    0.28897    0.39363    1.000
    Si1858   Si       0.41919    0.24576    0.45664    1.000
    N1859    N        0.41067    0.26246    0.49639    1.000
    N1860    N        0.42432    0.28147    0.42938    1.000
    N1861    N        0.28436    0.25103    0.49836    1.000
    Si1862   Si       0.29758    0.28258    0.60619    1.000
    Si1863   Si       0.28209    0.28352    0.52880    1.000
    N1864    N        0.28519    0.26580    0.56901    1.000
    N1865    N        0.33128    0.24156    0.74004    1.000
    Si1866   Si       0.36459    0.25565    0.60084    1.000
    N1867    N        0.36842    0.27941    0.56369    1.000
    Si1868   Si       0.47650    0.27007    0.59512    1.000
    Si1869   Si       0.38616    0.25326    0.53189    1.000
    N1870    N        0.47426    0.25877    0.55341    1.000
    N1871    N        0.33328    0.26988    0.62710    1.000
    N1872    N        0.34604    0.29014    0.69454    1.000
    Si1873   Si       0.29171    0.25294    0.72231    1.000
    N1874    N        0.26577    0.28176    0.63697    1.000
    N1875    N        0.28123    0.29318    0.71199    1.000
    Si1876   Si       0.35948    0.27429    0.73183    1.000
    Si1877   Si       0.36124    0.28875    0.65366    1.000
    N1878    N        0.39186    0.24678    0.72565    1.000
    N1879    N        0.44115    0.27434    0.67971    1.000
    Si1880   Si       0.42767    0.24863    0.64930    1.000
    N1881    N        0.39138    0.26412    0.63448    1.000
    Si1882   Si       0.43420    0.25262    0.71824    1.000
    Si1883   Si       0.29129    0.27101    0.82748    1.000
    Si1884   Si       0.34833    0.29246    0.80723    1.000
    N1885    N        0.32667    0.25237    0.80914    1.000
    N1886    N        0.27091    0.29765    0.79791    1.000
    Si1887   Si       0.24002    0.27470    0.77591    1.000
    N1888    N        0.27055    0.27472    0.86823    1.000
    N1889    N        0.47077    0.26191    0.92935    1.000
    Si1890   Si       0.43841    0.25251    0.90223    1.000
    N1891    N        0.37629    0.28403    0.83861    1.000
    Si1892   Si       0.45963    0.25799    0.78913    1.000
    N1893    N        0.47715    0.28935    0.81464    1.000
    Si1894   Si       0.40587    0.25372    0.84080    1.000
    N1895    N        0.44930    0.27722    0.75119    1.000
    N1896    N        0.43899    0.26852    0.86366    1.000
    Si1897   Si       0.36391    0.28353    0.92944    1.000
    Si1898   Si       0.24290    0.29495    0.95753    1.000
    N1899    N        0.35431    0.27345    0.97067    1.000
    Si1900   Si       0.29352    0.26195    0.90249    1.000
    N1901    N        0.33362    0.27907    0.89862    1.000
    N1902    N        0.27436    0.26999    0.93961    1.000
    Si1903   Si       0.47401    0.29497    0.95891    1.000
    N1904    N        0.40002    0.26250    0.91897    1.000
    Si1905   Si       0.31528    0.32790    0.02947    1.000
    N1906    N        0.28211    0.32649    0.05912    1.000
    Si1907   Si       0.48602    0.34250    0.12232    1.000
    N1908    N        0.45358    0.34476    0.02673    1.000
    N1909    N        0.39620    0.33848    0.06932    1.000
    N1910    N        0.46154    0.33372    0.08802    1.000
    Si1911   Si       0.42138    0.33428    0.10467    1.000
    N1912    N        0.38898    0.34205    0.00175    1.000
    Si1913   Si       0.46425    0.30563    0.04052    1.000
    Si1914   Si       0.27895    0.33480    0.20634    1.000
    N1915    N        0.31155    0.32369    0.17890    1.000
    N1916    N        0.35430    0.34651    0.14304    1.000
    Si1917   Si       0.31286    0.34014    0.13670    1.000
    Si1918   Si       0.35580    0.33513    0.18778    1.000
    N1919    N        0.47523    0.31701    0.15481    1.000
    N1920    N        0.47988    0.32570    0.22776    1.000
    N1921    N        0.36725    0.30856    0.22007    1.000
    Si1922   Si       0.26798    0.36333    0.07698    1.000
    N1923    N        0.29793    0.33257    0.31721    1.000
    Si1924   Si       0.28441    0.31448    0.27897    1.000
    N1925    N        0.34603    0.34733    0.35285    1.000
    Si1926   Si       0.32077    0.31046    0.34795    1.000
    Si1927   Si       0.35371    0.35133    0.30829    1.000
    N1928    N        0.35781    0.31369    0.28693    1.000
    N1929    N        0.29401    0.34370    0.24587    1.000
    Si1930   Si       0.38897    0.31643    0.25738    1.000
    Si1931   Si       0.39356    0.35293    0.36021    1.000
    N1932    N        0.45966    0.31397    0.47814    1.000
    N1933    N        0.40645    0.35540    0.25179    1.000
    N1934    N        0.42154    0.32140    0.37318    1.000
    N1935    N        0.31917    0.35869    0.41390    1.000
    Si1936   Si       0.33820    0.32183    0.48571    1.000
    Si1937   Si       0.32255    0.31352    0.41490    1.000
    N1938    N        0.31597    0.36038    0.48491    1.000
    Si1939   Si       0.46274    0.33729    0.37463    1.000
    N1940    N        0.46546    0.34579    0.41759    1.000
    N1941    N        0.36270    0.30342    0.40487    1.000
    N1942    N        0.38214    0.32526    0.49517    1.000
    Si1943   Si       0.45972    0.30596    0.43470    1.000
    N1944    N        0.31362    0.32143    0.59219    1.000
    N1945    N        0.26037    0.31995    0.54101    1.000
    Si1946   Si       0.34374    0.31524    0.56092    1.000
    Si1947   Si       0.28452    0.35067    0.51486    1.000
    N1948    N        0.25433    0.34723    0.61275    1.000
    Si1949   Si       0.27931    0.34338    0.57700    1.000
    N1950    N        0.31840    0.30970    0.52226    1.000
    N1951    N        0.36642    0.35188    0.55913    1.000
    N1952    N        0.42882    0.32516    0.53705    1.000
    Si1953   Si       0.46338    0.33303    0.56120    1.000
    Si1954   Si       0.39680    0.35215    0.52624    1.000
    N1955    N        0.47262    0.31332    0.59915    1.000
    Si1956   Si       0.42094    0.30433    0.49735    1.000
    Si1957   Si       0.32644    0.34475    0.62685    1.000
    N1958    N        0.32145    0.34992    0.72789    1.000
    N1959    N        0.30090    0.33611    0.65926    1.000
    Si1960   Si       0.26108    0.32363    0.64923    1.000
    Si1961   Si       0.31276    0.31912    0.69807    1.000
    N1962    N        0.36695    0.33122    0.64144    1.000
    Si1963   Si       0.41785    0.36011    0.73582    1.000
    Si1964   Si       0.47356    0.35293    0.62197    1.000
    N1965    N        0.40638    0.33182    0.70150    1.000
    N1966    N        0.47863    0.32552    0.70706    1.000
    Si1967   Si       0.44390    0.31652    0.68343    1.000
    N1968    N        0.43956    0.34700    0.65025    1.000
    Si1969   Si       0.39746    0.35341    0.66280    1.000
    Si1970   Si       0.29094    0.33903    0.81055    1.000
    Si1971   Si       0.35185    0.34670    0.75855    1.000
    N1972    N        0.31883    0.30934    0.83677    1.000
    N1973    N        0.32903    0.35713    0.79234    1.000
    N1974    N        0.27163    0.35583    0.84546    1.000
    N1975    N        0.36753    0.32717    0.94044    1.000
    Si1976   Si       0.34976    0.30369    0.86523    1.000
    N1977    N        0.44080    0.34275    0.76775    1.000
    N1978    N        0.44158    0.34123    0.84454    1.000
    Si1979   Si       0.47055    0.31450    0.74805    1.000
    Si1980   Si       0.43013    0.35899    0.80547    1.000
    Si1981   Si       0.46441    0.30449    0.85224    1.000
    N1982    N        0.30822    0.36071    0.91279    1.000
    N1983    N        0.31754    0.32787    0.98652    1.000
    N1984    N        0.25391    0.33629    0.95892    1.000
    Si1985   Si       0.29572    0.35471    0.95771    1.000
    Si1986   Si       0.35947    0.31492    0.98475    1.000
    N1987    N        0.35548    0.30246    0.76510    1.000
    N1988    N        0.37120    0.33913    0.87840    1.000
    Si1989   Si       0.42950    0.34923    0.99262    1.000
    N1990    N        0.44782    0.32951    0.95671    1.000
    Si1991   Si       0.40617    0.36222    0.86444    1.000
    N1992    N        0.26843    0.36319    0.77727    1.000
    N1993    N        0.27317    0.39733    0.05241    1.000
    Si1994   Si       0.30566    0.39689    0.02249    1.000
    N1995    N        0.33413    0.36713    0.03584    1.000
    N1996    N        0.28560    0.36519    0.11693    1.000
    N1997    N        0.39187    0.40395    0.03412    1.000
    N1998    N        0.44370    0.39907    0.08025    1.000
    Si1999   Si       0.46834    0.36743    0.06038    1.000
    Si2000   Si       0.37703    0.36310    0.03741    1.000
    Si2001   Si       0.26692    0.38866    0.14533    1.000
    N2002    N        0.29374    0.40881    0.23327    1.000
    Si2003   Si       0.26604    0.40723    0.20146    1.000
    N2004    N        0.26151    0.36887    0.18371    1.000
    Si2005   Si       0.46786    0.40894    0.24520    1.000
    Si2006   Si       0.40215    0.38879    0.22425    1.000
    N2007    N        0.48437    0.38461    0.13340    1.000
    Si2008   Si       0.44654    0.40237    0.12357    1.000
    N2009    N        0.41874    0.36861    0.13166    1.000
    N2010    N        0.44059    0.40468    0.21254    1.000
    Si2011   Si       0.38144    0.38027    0.14986    1.000
    N2012    N        0.37708    0.37414    0.19338    1.000
    N2013    N        0.36423    0.41882    0.13821    1.000
    N2014    N        0.33611    0.38437    0.28584    1.000
    Si2015   Si       0.29861    0.38172    0.26704    1.000
    N2016    N        0.26468    0.39149    0.29116    1.000
    N2017    N        0.28371    0.38655    0.35745    1.000
    Si2018   Si       0.26636    0.36200    0.32585    1.000
    N2019    N        0.45729    0.38075    0.27920    1.000
    N2020    N        0.46744    0.37421    0.35139    1.000
    Si2021   Si       0.41486    0.38155    0.28706    1.000
    Si2022   Si       0.44221    0.40994    0.36532    1.000
    N2023    N        0.39331    0.41400    0.26246    1.000
    N2024    N        0.39396    0.36375    0.31799    1.000
    Si2025   Si       0.25582    0.41777    0.37048    1.000
    Si2026   Si       0.32223    0.37765    0.37478    1.000
    Si2027   Si       0.32735    0.38465    0.44830    1.000
    N2028    N        0.34044    0.41600    0.38201    1.000
    Si2029   Si       0.37637    0.41153    0.40586    1.000
    N2030    N        0.37073    0.39372    0.44677    1.000
    N2031    N        0.40658    0.39010    0.38070    1.000
    Si2032   Si       0.40253    0.41048    0.47343    1.000
    N2033    N        0.44064    0.41201    0.44968    1.000
    Si2034   Si       0.47416    0.38490    0.44094    1.000
    N2035    N        0.24772    0.36789    0.49696    1.000
    N2036    N        0.29047    0.37651    0.55170    1.000
    N2037    N        0.33008    0.38415    0.61258    1.000
    N2038    N        0.34889    0.41507    0.55215    1.000
    Si2039   Si       0.24983    0.41358    0.50179    1.000
    Si2040   Si       0.36145    0.38764    0.58317    1.000
    Si2041   Si       0.47551    0.41671    0.71225    1.000
    N2042    N        0.45340    0.36936    0.58499    1.000
    N2043    N        0.39426    0.40362    0.60811    1.000
    N2044    N        0.40265    0.39319    0.51217    1.000
    Si2045   Si       0.43413    0.40639    0.59433    1.000
    N2046    N        0.26705    0.39117    0.71295    1.000
    Si2047   Si       0.29318    0.37900    0.74362    1.000
    N2048    N        0.43840    0.39405    0.71749    1.000
    Si2049   Si       0.40255    0.41615    0.70571    1.000
    N2050    N        0.38496    0.39330    0.67355    1.000
    N2051    N        0.32986    0.39623    0.85372    1.000
    Si2052   Si       0.35103    0.38365    0.81730    1.000
    N2053    N        0.31746    0.41360    0.75489    1.000
    Si2054   Si       0.35933    0.41847    0.75726    1.000
    N2055    N        0.43791    0.40148    0.80323    1.000
    N2056    N        0.39533    0.40923    0.85776    1.000
    N2057    N        0.42928    0.37743    0.90100    1.000
    Si2058   Si       0.47526    0.41941    0.78373    1.000
    Si2059   Si       0.45056    0.36900    0.93733    1.000
    N2060    N        0.38899    0.36051    0.81858    1.000
    N2061    N        0.36118    0.40033    0.91222    1.000
    Si2062   Si       0.29526    0.37925    0.87521    1.000
    N2063    N        0.29330    0.39057    0.98185    1.000
    N2064    N        0.43816    0.38998    0.97476    1.000
    Si2065   Si       0.42641    0.41959    0.89079    1.000
    Si2066   Si       0.35189    0.35743    0.91247    1.000
    N2067    N        0.37940    0.37957    0.74906    1.000
    N2068    N        0.32577    0.43382    0.02654    1.000
    Si2069   Si       0.24838    0.43050    0.04637    1.000
    N2070    N        0.27227    0.46298    0.06055    1.000
    N2071    N        0.24897    0.44414    0.00223    1.000
    Si2072   Si       0.31200    0.46998    0.04338    1.000
    Si2073   Si       0.36576    0.43168    0.01307    1.000
    N2074    N        0.40025    0.45223    0.08730    1.000
    N2075    N        0.45293    0.44416    0.03474    1.000
    Si2076   Si       0.41949    0.42810    0.05708    1.000
    Si2077   Si       0.47992    0.47050    0.05827    1.000
    N2078    N        0.38543    0.46984    0.02311    1.000
    N2079    N        0.47509    0.46495    0.10153    1.000
    N2080    N        0.34240    0.44739    0.19817    1.000
    Si2081   Si       0.31368    0.44890    0.23059    1.000
    Si2082   Si       0.32928    0.43676    0.15824    1.000
    Si2083   Si       0.27623    0.46898    0.16696    1.000
    N2084    N        0.28314    0.47214    0.21146    1.000
    N2085    N        0.28500    0.42411    0.16420    1.000
    N2086    N        0.31290    0.47332    0.14266    1.000
    N2087    N        0.41247    0.46330    0.21525    1.000
    N2088    N        0.48220    0.45926    0.20361    1.000
    N2089    N        0.43040    0.43281    0.14902    1.000
    Si2090   Si       0.39564    0.44819    0.12918    1.000
    Si2091   Si       0.44278    0.44389    0.18922    1.000
    N2092    N        0.32813    0.45332    0.27170    1.000
    Si2093   Si       0.33846    0.45067    0.35441    1.000
    N2094    N        0.26282    0.46387    0.27932    1.000
    N2095    N        0.30282    0.47205    0.33720    1.000
    Si2096   Si       0.35599    0.42162    0.28547    1.000
    Si2097   Si       0.30242    0.47777    0.29430    1.000
    N2098    N        0.36526    0.43539    0.32450    1.000
    Si2099   Si       0.47047    0.44266    0.30806    1.000
    Si2100   Si       0.40185    0.45799    0.32758    1.000
    N2101    N        0.45886    0.44555    0.26469    1.000
    Si2102   Si       0.41568    0.45313    0.25769    1.000
    N2103    N        0.43309    0.42862    0.32622    1.000
    Si2104   Si       0.27960    0.44456    0.43935    1.000
    N2105    N        0.27149    0.45181    0.39548    1.000
    Si2106   Si       0.34213    0.45617    0.46609    1.000
    N2107    N        0.31675    0.42603    0.45209    1.000
    N2108    N        0.40465    0.47865    0.28915    1.000
    N2109    N        0.39337    0.45093    0.41849    1.000
    N2110    N        0.38143    0.44880    0.48810    1.000
    N2111    N        0.45769    0.44091    0.39102    1.000
    Si2112   Si       0.43578    0.45102    0.42987    1.000
    N2113    N        0.24692    0.42345    0.46146    1.000
    Si2114   Si       0.25601    0.43811    0.60984    1.000
    N2115    N        0.28563    0.43416    0.51748    1.000
    N2116    N        0.29326    0.43371    0.58792    1.000
    N2117    N        0.47996    0.44170    0.67868    1.000
    Si2118   Si       0.44605    0.46470    0.57813    1.000
    N2119    N        0.45509    0.43954    0.61474    1.000
    Si2120   Si       0.38870    0.43104    0.53605    1.000
    N2121    N        0.42568    0.43076    0.56037    1.000
    N2122    N        0.47944    0.47203    0.55344    1.000
    N2123    N        0.37893    0.47602    0.54926    1.000
    Si2124   Si       0.31371    0.42270    0.62585    1.000
    N2125    N        0.27682    0.42116    0.64689    1.000
    N2126    N        0.29620    0.46025    0.70858    1.000
    N2127    N        0.34741    0.44545    0.64066    1.000
    Si2128   Si       0.27184    0.42753    0.69018    1.000
    N2129    N        0.47219    0.44221    0.74805    1.000
    Si2130   Si       0.39501    0.47693    0.70417    1.000
    Si2131   Si       0.44942    0.47195    0.67130    1.000
    N2132    N        0.40982    0.44997    0.67297    1.000
    Si2133   Si       0.38536    0.42510    0.64523    1.000
    N2134    N        0.37978    0.44431    0.72930    1.000
    Si2135   Si       0.28604    0.47694    0.50417    1.000
    Si2136   Si       0.30663    0.41730    0.55034    1.000
    N2137    N        0.25870    0.45974    0.76094    1.000
    N2138    N        0.35740    0.46761    0.84686    1.000
    N2139    N        0.29227    0.46743    0.82136    1.000
    Si2140   Si       0.25133    0.46845    0.80299    1.000
    Si2141   Si       0.33538    0.46026    0.80996    1.000
    Si2142   Si       0.30160    0.45194    0.75238    1.000
    N2143    N        0.36406    0.42487    0.80044    1.000
    N2144    N        0.36874    0.43338    0.97218    1.000
    Si2145   Si       0.45706    0.42618    0.99310    1.000
    N2146    N        0.42171    0.46163    0.82849    1.000
    Si2147   Si       0.40368    0.42391    0.81807    1.000
    N2148    N        0.48963    0.44495    0.81431    1.000
    Si2149   Si       0.46307    0.47818    0.82308    1.000
    Si2150   Si       0.35713    0.42731    0.87371    1.000
    Si2151   Si       0.26974    0.42427    0.96941    1.000
    N2152    N        0.28507    0.45886    0.94926    1.000
    N2153    N        0.33512    0.45542    0.90243    1.000
    Si2154   Si       0.28947    0.45794    0.90568    1.000
    N2155    N        0.46337    0.43665    0.88242    1.000
    N2156    N        0.44495    0.46156    0.97138    1.000
    N2157    N        0.40009    0.45063    0.90985    1.000
    Si2158   Si       0.36374    0.43863    0.93154    1.000
    N2159    N        0.27827    0.41815    0.88730    1.000
    N2160    N        0.28222    0.51634    0.10679    1.000
    N2161    N        0.31137    0.50135    0.01298    1.000
    Si2162   Si       0.25447    0.49997    0.07622    1.000
    Si2163   Si       0.32211    0.50051    0.11150    1.000
    N2164    N        0.33926    0.48270    0.07597    1.000
    N2165    N        0.38241    0.48226    0.15199    1.000
    N2166    N        0.42480    0.51868    0.00609    1.000
    N2167    N        0.47588    0.51326    0.04964    1.000
    Si2168   Si       0.46645    0.52745    0.01072    1.000
    Si2169   Si       0.38090    0.48513    0.06378    1.000
    N2170    N        0.39406    0.52650    0.06982    1.000
    Si2171   Si       0.26010    0.53264    0.14157    1.000
    N2172    N        0.25794    0.53333    0.22225    1.000
    Si2173   Si       0.48154    0.49378    0.13288    1.000
    N2174    N        0.24098    0.49556    0.15986    1.000
    Si2175   Si       0.37404    0.52344    0.15754    1.000
    N2176    N        0.36929    0.51912    0.20094    1.000
    Si2177   Si       0.47840    0.47943    0.24249    1.000
    N2178    N        0.45505    0.50927    0.16195    1.000
    N2179    N        0.25492    0.53165    0.04930    1.000
    Si2180   Si       0.37495    0.47693    0.19478    1.000
    Si2181   Si       0.26410    0.49467    0.24472    1.000
    N2182    N        0.29929    0.51387    0.26816    1.000
    N2183    N        0.35818    0.48638    0.36715    1.000
    N2184    N        0.23935    0.50177    0.35613    1.000
    Si2185   Si       0.27730    0.48816    0.37078    1.000
    N2186    N        0.41872    0.48982    0.35323    1.000
    Si2187   Si       0.38670    0.52108    0.36069    1.000
    Si2188   Si       0.45823    0.50670    0.34753    1.000
    Si2189   Si       0.42163    0.51803    0.28253    1.000
    N2190    N        0.45256    0.51258    0.25162    1.000
    N2191    N        0.44330    0.53276    0.31587    1.000
    N2192    N        0.48459    0.48117    0.32502    1.000
    Si2193   Si       0.47585    0.51380    0.42347    1.000
    Si2194   Si       0.30411    0.50929    0.43877    1.000
    N2195    N        0.29043    0.51943    0.39804    1.000
    N2196    N        0.33962    0.48518    0.43440    1.000
    N2197    N        0.47202    0.53001    0.38153    1.000
    Si2198   Si       0.37270    0.48737    0.40896    1.000
    N2199    N        0.38492    0.51914    0.48533    1.000
    Si2200   Si       0.42711    0.52371    0.47231    1.000
    N2201    N        0.44149    0.49416    0.44377    1.000
    N2202    N        0.38986    0.52741    0.40320    1.000
    N2203    N        0.27849    0.48196    0.46110    1.000
    N2204    N        0.25364    0.49873    0.52520    1.000
    N2205    N        0.35394    0.51295    0.61264    1.000
    N2206    N        0.25017    0.48075    0.61392    1.000
    N2207    N        0.32925    0.48179    0.50261    1.000
    Si2208   Si       0.37180    0.48660    0.50882    1.000
    N2209    N        0.44848    0.52006    0.51019    1.000
    Si2210   Si       0.38305    0.50659    0.58076    1.000
    N2211    N        0.42184    0.49521    0.59512    1.000
    Si2212   Si       0.48151    0.51219    0.53692    1.000
    Si2213   Si       0.29219    0.50181    0.69936    1.000
    Si2214   Si       0.27225    0.51175    0.63316    1.000
    N2215    N        0.25018    0.50229    0.69505    1.000
    N2216    N        0.30263    0.53134    0.72823    1.000
    N2217    N        0.30754    0.50393    0.65856    1.000
    Si2218   Si       0.34711    0.48950    0.64897    1.000
    N2219    N        0.37251    0.50547    0.68110    1.000
    N2220    N        0.47225    0.50544    0.65336    1.000
    Si2221   Si       0.46833    0.48635    0.74420    1.000
    N2222    N        0.43689    0.48761    0.71186    1.000
    Si2223   Si       0.28971    0.50982    0.83275    1.000
    Si2224   Si       0.31925    0.52184    0.76720    1.000
    N2225    N        0.32705    0.52649    0.84325    1.000
    N2226    N        0.28573    0.52921    0.79340    1.000
    N2227    N        0.25612    0.52967    0.85144    1.000
    N2228    N        0.45824    0.50111    0.78380    1.000
    Si2229   Si       0.39516    0.49106    0.84563    1.000
    N2230    N        0.41177    0.52972    0.82974    1.000
    N2231    N        0.48323    0.49687    0.85605    1.000
    Si2232   Si       0.33922    0.49394    0.87771    1.000
    Si2233   Si       0.29501    0.49800    0.97044    1.000
    N2234    N        0.29238    0.50021    0.89094    1.000
    N2235    N        0.25363    0.50971    0.98054    1.000
    Si2236   Si       0.26201    0.53083    0.89352    1.000
    N2237    N        0.32193    0.52955    0.95611    1.000
    Si2238   Si       0.36257    0.53340    0.96448    1.000
    N2239    N        0.38574    0.50003    0.95436    1.000
    Si2240   Si       0.47280    0.48708    0.94949    1.000
    Si2241   Si       0.40514    0.49568    0.91693    1.000
    N2242    N        0.44777    0.51116    0.92189    1.000
    N2243    N        0.38200    0.51165    0.88345    1.000
    Si2244   Si       0.40871    0.48215    0.98761    1.000
    N2245    N        0.32818    0.47952    0.77102    1.000
    N2246    N        0.31365    0.56727    0.05558    1.000
    Si2247   Si       0.27171    0.56426    0.07679    1.000
    Si2248   Si       0.24754    0.54378    0.00905    1.000
    Si2249   Si       0.31629    0.54386    0.01734    1.000
    N2250    N        0.35996    0.54971    0.00665    1.000
    N2251    N        0.36668    0.58971    0.09997    1.000
    Si2252   Si       0.38290    0.55118    0.10263    1.000
    N2253    N        0.45034    0.57468    0.08387    1.000
    N2254    N        0.46604    0.57092    0.01274    1.000
    N2255    N        0.40607    0.58561    0.03011    1.000
    Si2256   Si       0.39675    0.54291    0.03157    1.000
    Si2257   Si       0.48295    0.54692    0.07628    1.000
    N2258    N        0.24909    0.59951    0.05906    1.000
    Si2259   Si       0.26707    0.56807    0.19890    1.000
    N2260    N        0.30477    0.57948    0.22650    1.000
    N2261    N        0.29541    0.55364    0.16400    1.000
    Si2262   Si       0.32376    0.57203    0.13423    1.000
    N2263    N        0.42338    0.55964    0.20720    1.000
    N2264    N        0.40309    0.55213    0.14113    1.000
    Si2265   Si       0.38420    0.54995    0.22786    1.000
    N2266    N        0.45865    0.58554    0.15877    1.000
    Si2267   Si       0.43766    0.54769    0.16790    1.000
    N2268    N        0.37174    0.59108    0.22115    1.000
    Si2269   Si       0.45713    0.55216    0.23430    1.000
    N2270    N        0.28401    0.56351    0.99371    1.000
    N2271    N        0.34580    0.53494    0.12480    1.000
    N2272    N        0.26387    0.57222    0.28741    1.000
    Si2273   Si       0.29639    0.55540    0.26076    1.000
    N2274    N        0.26178    0.57053    0.36238    1.000
    N2275    N        0.32760    0.57939    0.29256    1.000
    Si2276   Si       0.36011    0.58884    0.36346    1.000
    N2277    N        0.37264    0.55712    0.33682    1.000
    Si2278   Si       0.37038    0.57504    0.29603    1.000
    N2279    N        0.45620    0.57964    0.26843    1.000
    Si2280   Si       0.47025    0.56365    0.30465    1.000
    N2281    N        0.38930    0.54335    0.26946    1.000
    N2282    N        0.47465    0.59001    0.33950    1.000
    Si2283   Si       0.28373    0.57372    0.46834    1.000
    Si2284   Si       0.28819    0.56273    0.39576    1.000
    N2285    N        0.26414    0.57242    0.43078    1.000
    N2286    N        0.32352    0.58709    0.39109    1.000
    Si2287   Si       0.35296    0.54735    0.47939    1.000
    N2288    N        0.31407    0.54063    0.46599    1.000
    N2289    N        0.46353    0.59748    0.40584    1.000
    Si2290   Si       0.48547    0.57146    0.37692    1.000
    N2291    N        0.36576    0.57404    0.44602    1.000
    N2292    N        0.42854    0.56179    0.45113    1.000
    N2293    N        0.39421    0.59476    0.39002    1.000
    Si2294   Si       0.39857    0.56516    0.42128    1.000
    Si2295   Si       0.46629    0.58598    0.44605    1.000
    N2296    N        0.33631    0.57595    0.58531    1.000
    N2297    N        0.35106    0.57651    0.51160    1.000
    Si2298   Si       0.24928    0.56898    0.60966    1.000
    N2299    N        0.25453    0.56770    0.50006    1.000
    Si2300   Si       0.33131    0.54910    0.61784    1.000
    N2301    N        0.28875    0.55102    0.61915    1.000
    Si2302   Si       0.36546    0.57869    0.55273    1.000
    Si2303   Si       0.43026    0.54795    0.54194    1.000
    N2304    N        0.43291    0.58469    0.52099    1.000
    N2305    N        0.39114    0.54289    0.56059    1.000
    N2306    N        0.46696    0.54401    0.56479    1.000
    Si2307   Si       0.49074    0.56133    0.59476    1.000
    Si2308   Si       0.27822    0.56613    0.72171    1.000
    N2309    N        0.35114    0.56718    0.65216    1.000
    N2310    N        0.24381    0.57158    0.69341    1.000
    Si2311   Si       0.37950    0.54857    0.67941    1.000
    N2312    N        0.37021    0.56542    0.71757    1.000
    N2313    N        0.46910    0.57474    0.63028    1.000
    N2314    N        0.41984    0.56046    0.66656    1.000
    Si2315   Si       0.46406    0.54726    0.66381    1.000
    Si2316   Si       0.26771    0.56998    0.79492    1.000
    N2317    N        0.34761    0.55309    0.78181    1.000
    Si2318   Si       0.33392    0.56500    0.82192    1.000
    N2319    N        0.26691    0.58927    0.75690    1.000
    N2320    N        0.29628    0.59119    0.81971    1.000
    N2321    N        0.36726    0.58087    0.84754    1.000
    N2322    N        0.42250    0.56205    0.76762    1.000
    Si2323   Si       0.38177    0.57196    0.76115    1.000
    N2324    N        0.47988    0.55707    0.82044    1.000
    Si2325   Si       0.39615    0.55110    0.86582    1.000
    Si2326   Si       0.44599    0.59503    0.75338    1.000
    N2327    N        0.48724    0.57910    0.75743    1.000
    Si2328   Si       0.44482    0.53964    0.79988    1.000
    Si2329   Si       0.29715    0.56607    0.95176    1.000
    N2330    N        0.27993    0.56607    0.91086    1.000
    N2331    N        0.42061    0.56837    0.89456    1.000
    Si2332   Si       0.40296    0.59416    0.92238    1.000
    N2333    N        0.47267    0.58019    0.94135    1.000
    Si2334   Si       0.48453    0.59513    0.98130    1.000
    N2335    N        0.38752    0.57051    0.95658    1.000
    Si2336   Si       0.45863    0.55034    0.91196    1.000
    N2337    N        0.48975    0.56357    0.88407    1.000
    Si2338   Si       0.38049    0.58902    0.99581    1.000
    N2339    N        0.34540    0.63923    0.05504    1.000
    Si2340   Si       0.26329    0.63778    0.04597    1.000
    N2341    N        0.29343    0.63942    0.01348    1.000
    Si2342   Si       0.33653    0.65038    0.01564    1.000
    Si2343   Si       0.27085    0.63096    0.11672    1.000
    Si2344   Si       0.33218    0.60245    0.07596    1.000
    N2345    N        0.43372    0.62653    0.22594    1.000
    N2346    N        0.29949    0.60028    0.10592    1.000
    N2347    N        0.47073    0.62994    0.04633    1.000
    N2348    N        0.42214    0.63122    0.11626    1.000
    Si2349   Si       0.45327    0.60163    0.11939    1.000
    N2350    N        0.39873    0.63257    0.16936    1.000
    Si2351   Si       0.29046    0.62048    0.22868    1.000
    N2352    N        0.32070    0.63981    0.20698    1.000
    N2353    N        0.25348    0.60751    0.21132    1.000
    N2354    N        0.34151    0.60223    0.15884    1.000
    Si2355   Si       0.32817    0.64905    0.16025    1.000
    Si2356   Si       0.33464    0.59792    0.20153    1.000
    Si2357   Si       0.46337    0.65225    0.20678    1.000
    Si2358   Si       0.37806    0.61849    0.13129    1.000
    Si2359   Si       0.40817    0.60236    0.20182    1.000
    Si2360   Si       0.44639    0.59520    0.04472    1.000
    N2361    N        0.29150    0.63149    0.26946    1.000
    N2362    N        0.29193    0.62726    0.33692    1.000
    Si2363   Si       0.25292    0.61418    0.36207    1.000
    Si2364   Si       0.29043    0.60160    0.30229    1.000
    N2365    N        0.36114    0.62576    0.34040    1.000
    Si2366   Si       0.32791    0.65381    0.33655    1.000
    N2367    N        0.39965    0.61081    0.29201    1.000
    Si2368   Si       0.43537    0.61679    0.26846    1.000
    N2369    N        0.43074    0.63879    0.35459    1.000
    Si2370   Si       0.46790    0.63138    0.33503    1.000
    Si2371   Si       0.39773    0.64166    0.32317    1.000
    N2372    N        0.46343    0.64036    0.29200    1.000
    Si2373   Si       0.33950    0.60363    0.43080    1.000
    N2374    N        0.31170    0.60688    0.46576    1.000
    N2375    N        0.35061    0.64519    0.42744    1.000
    N2376    N        0.25524    0.63702    0.47205    1.000
    Si2377   Si       0.29421    0.64684    0.45931    1.000
    N2378    N        0.47580    0.61486    0.47482    1.000
    Si2379   Si       0.42830    0.62168    0.39447    1.000
    N2380    N        0.42019    0.64847    0.42818    1.000
    N2381    N        0.37974    0.62914    0.48642    1.000
    Si2382   Si       0.38542    0.65497    0.45309    1.000
    N2383    N        0.32050    0.62744    0.54450    1.000
    Si2384   Si       0.31177    0.60927    0.58473    1.000
    N2385    N        0.26930    0.60884    0.59231    1.000
    Si2386   Si       0.33863    0.61834    0.50292    1.000
    Si2387   Si       0.24201    0.63387    0.61128    1.000
    Si2388   Si       0.40938    0.61895    0.51493    1.000
    N2389    N        0.38853    0.61375    0.55402    1.000
    Si2390   Si       0.40057    0.63680    0.58778    1.000
    N2391    N        0.44393    0.64393    0.58991    1.000
    Si2392   Si       0.46954    0.64737    0.50134    1.000
    Si2393   Si       0.48502    0.63375    0.57608    1.000
    Si2394   Si       0.44992    0.64739    0.69475    1.000
    N2395    N        0.32556    0.63080    0.62204    1.000
    Si2396   Si       0.28409    0.62504    0.73613    1.000
    Si2397   Si       0.35716    0.61100    0.64500    1.000
    Si2398   Si       0.35033    0.60555    0.71604    1.000
    N2399    N        0.30741    0.60077    0.70864    1.000
    N2400    N        0.26146    0.65288    0.64904    1.000
    N2401    N        0.24511    0.64205    0.72061    1.000
    N2402    N        0.35877    0.63210    0.68272    1.000
    N2403    N        0.45602    0.60820    0.71406    1.000
    N2404    N        0.39449    0.61249    0.62273    1.000
    N2405    N        0.45000    0.63758    0.65414    1.000
    Si2406   Si       0.43210    0.59752    0.64219    1.000
    Si2407   Si       0.30061    0.63066    0.83613    1.000
    Si2408   Si       0.35072    0.64509    0.78173    1.000
    N2409    N        0.34083    0.63680    0.82219    1.000
    N2410    N        0.31333    0.64912    0.75710    1.000
    Si2411   Si       0.35522    0.62059    0.86583    1.000
    N2412    N        0.37240    0.61674    0.75449    1.000
    N2413    N        0.43662    0.62658    0.78016    1.000
    Si2414   Si       0.40788    0.64678    0.75829    1.000
    Si2415   Si       0.46265    0.65119    0.80507    1.000
    N2416    N        0.38609    0.65218    0.86952    1.000
    N2417    N        0.31142    0.62311    0.87675    1.000
    Si2418   Si       0.28494    0.60882    0.90573    1.000
    Si2419   Si       0.34388    0.62545    0.94570    1.000
    N2420    N        0.30088    0.61039    0.94703    1.000
    Si2421   Si       0.27918    0.63940    0.97231    1.000
    N2422    N        0.24791    0.63025    0.90555    1.000
    N2423    N        0.35436    0.62152    0.98733    1.000
    Si2424   Si       0.45912    0.64996    0.94222    1.000
    N2425    N        0.42105    0.63221    0.93258    1.000
    N2426    N        0.48428    0.63983    0.90652    1.000
    N2427    N        0.36510    0.61153    0.90998    1.000
    N2428    N        0.47391    0.63732    0.98132    1.000
    N2429    N        0.23548    0.63759    0.97150    1.000
    Si2430   Si       0.35456    0.67242    0.08280    1.000
    Si2431   Si       0.28607    0.70212    0.07958    1.000
    N2432    N        0.32777    0.70424    0.06724    1.000
    N2433    N        0.34200    0.69027    0.00176    1.000
    N2434    N        0.27586    0.65970    0.08252    1.000
    N2435    N        0.39210    0.68778    0.06945    1.000
    N2436    N        0.44353    0.69520    0.01518    1.000
    Si2437   Si       0.47362    0.66109    0.01623    1.000
    Si2438   Si       0.41430    0.71156    0.04453    1.000
    Si2439   Si       0.32975    0.68159    0.21861    1.000
    Si2440   Si       0.26409    0.69256    0.15053    1.000
    N2441    N        0.33800    0.69039    0.17648    1.000
    N2442    N        0.24936    0.70517    0.18849    1.000
    N2443    N        0.29304    0.69259    0.23932    1.000
    N2444    N        0.35248    0.65277    0.12173    1.000
    Si2445   Si       0.36247    0.71596    0.15339    1.000
    N2446    N        0.28499    0.65479    0.15135    1.000
    N2447    N        0.46124    0.67146    0.16680    1.000
    Si2448   Si       0.42345    0.66250    0.14710    1.000
    N2449    N        0.40389    0.70212    0.14082    1.000
    N2450    N        0.46490    0.68474    0.23622    1.000
    N2451    N        0.26587    0.68686    0.30194    1.000
    Si2452   Si       0.29759    0.67384    0.27695    1.000
    N2453    N        0.33273    0.67619    0.29972    1.000
    N2454    N        0.24565    0.66178    0.36751    1.000
    N2455    N        0.33398    0.68427    0.36691    1.000
    Si2456   Si       0.45238    0.67670    0.43354    1.000
    Si2457   Si       0.36597    0.70171    0.28565    1.000
    N2458    N        0.39737    0.68353    0.31149    1.000
    Si2459   Si       0.48574    0.67203    0.27218    1.000
    N2460    N        0.39240    0.69498    0.47242    1.000
    Si2461   Si       0.32855    0.67741    0.40949    1.000
    N2462    N        0.28809    0.67115    0.42420    1.000
    N2463    N        0.32127    0.66224    0.49054    1.000
    Si2464   Si       0.25284    0.68781    0.40472    1.000
    N2465    N        0.47051    0.68318    0.47602    1.000
    Si2466   Si       0.41728    0.71666    0.33038    1.000
    N2467    N        0.45407    0.71309    0.35460    1.000
    N2468    N        0.36061    0.70116    0.24231    1.000
    N2469    N        0.26829    0.67307    0.53437    1.000
    Si2470   Si       0.31045    0.66840    0.53179    1.000
    N2471    N        0.28584    0.68656    0.59773    1.000
    Si2472   Si       0.24965    0.68943    0.56975    1.000
    N2473    N        0.32824    0.70460    0.54377    1.000
    Si2474   Si       0.36499    0.70807    0.56427    1.000
    N2475    N        0.37967    0.67500    0.58854    1.000
    Si2476   Si       0.41502    0.69471    0.50864    1.000
    Si2477   Si       0.25363    0.67463    0.68620    1.000
    N2478    N        0.32608    0.69479    0.64741    1.000
    N2479    N        0.29044    0.69202    0.70681    1.000
    N2480    N        0.35771    0.69864    0.71443    1.000
    Si2481   Si       0.30000    0.66244    0.63211    1.000
    Si2482   Si       0.36352    0.69347    0.62457    1.000
    Si2483   Si       0.32519    0.71180    0.68927    1.000
    Si2484   Si       0.37920    0.66843    0.69229    1.000
    N2485    N        0.41467    0.66055    0.71786    1.000
    Si2486   Si       0.45967    0.66892    0.62543    1.000
    N2487    N        0.45168    0.71035    0.63731    1.000
    N2488    N        0.39219    0.69097    0.65656    1.000
    N2489    N        0.47649    0.68095    0.69862    1.000
    N2490    N        0.43102    0.65564    0.51786    1.000
    Si2491   Si       0.25787    0.69569    0.81570    1.000
    N2492    N        0.26305    0.69013    0.77323    1.000
    Si2493   Si       0.30086    0.69126    0.75144    1.000
    N2494    N        0.26695    0.65823    0.83820    1.000
    Si2495   Si       0.36559    0.71077    0.75389    1.000
    N2496    N        0.45498    0.68909    0.78580    1.000
    N2497    N        0.38232    0.67730    0.77838    1.000
    Si2498   Si       0.41673    0.68172    0.86247    1.000
    N2499    N        0.45358    0.66300    0.84648    1.000
    Si2500   Si       0.41666    0.70718    0.79348    1.000
    Si2501   Si       0.24443    0.66199    0.87619    1.000
    Si2502   Si       0.25943    0.70171    0.93976    1.000
    N2503    N        0.29253    0.67731    0.95392    1.000
    N2504    N        0.25655    0.69833    0.89538    1.000
    Si2505   Si       0.33187    0.69449    0.96011    1.000
    N2506    N        0.35663    0.66631    0.93930    1.000
    N2507    N        0.40874    0.69527    0.90538    1.000
    Si2508   Si       0.38995    0.65719    0.91466    1.000
    N2509    N        0.46495    0.69350    0.94756    1.000
    N2510    N        0.31470    0.75360    0.01745    1.000
    N2511    N        0.26287    0.73121    0.05503    1.000
    Si2512   Si       0.34341    0.72346    0.02959    1.000
    N2513    N        0.28209    0.71771    0.11979    1.000
    N2514    N        0.38396    0.73849    0.02348    1.000
    N2515    N        0.43977    0.74590    0.05361    1.000
    Si2516   Si       0.47947    0.72769    0.03200    1.000
    Si2517   Si       0.30212    0.75771    0.12313    1.000
    N2518    N        0.34358    0.74307    0.12738    1.000
    N2519    N        0.26807    0.76075    0.22280    1.000
    Si2520   Si       0.25877    0.71771    0.22794    1.000
    N2521    N        0.33473    0.77002    0.22995    1.000
    N2522    N        0.44783    0.74016    0.18878    1.000
    Si2523   Si       0.43633    0.76871    0.22128    1.000
    Si2524   Si       0.36643    0.74184    0.22458    1.000
    Si2525   Si       0.41599    0.74168    0.16039    1.000
    N2526    N        0.37841    0.74394    0.18212    1.000
    Si2527   Si       0.47466    0.71988    0.21484    1.000
    N2528    N        0.37015    0.77722    0.07486    1.000
    N2529    N        0.31460    0.74417    0.35355    1.000
    Si2530   Si       0.25754    0.73048    0.29406    1.000
    N2531    N        0.29507    0.75283    0.28503    1.000
    Si2532   Si       0.32840    0.75818    0.31367    1.000
    Si2533   Si       0.27252    0.75143    0.36207    1.000
    N2534    N        0.24374    0.74784    0.32952    1.000
    N2535    N        0.36580    0.74375    0.29708    1.000
    Si2536   Si       0.47185    0.74439    0.28958    1.000
    N2537    N        0.43310    0.74801    0.30520    1.000
    Si2538   Si       0.39972    0.77256    0.28592    1.000
    N2539    N        0.39258    0.73041    0.36562    1.000
    N2540    N        0.39167    0.77203    0.44792    1.000
    N2541    N        0.47272    0.75160    0.24618    1.000
    Si2542   Si       0.40986    0.73217    0.45675    1.000
    Si2543   Si       0.34939    0.72561    0.37603    1.000
    N2544    N        0.33743    0.71824    0.42050    1.000
    Si2545   Si       0.34893    0.75873    0.43582    1.000
    N2546    N        0.25463    0.72945    0.39510    1.000
    Si2547   Si       0.43234    0.73481    0.38553    1.000
    N2548    N        0.43156    0.71517    0.42340    1.000
    Si2549   Si       0.47901    0.72563    0.48968    1.000
    N2550    N        0.40045    0.76279    0.24295    1.000
    Si2551   Si       0.30545    0.74146    0.54050    1.000
    N2552    N        0.28548    0.75071    0.57742    1.000
    N2553    N        0.35049    0.73086    0.60084    1.000
    N2554    N        0.27689    0.74803    0.50742    1.000
    Si2555   Si       0.30453    0.72600    0.60944    1.000
    Si2556   Si       0.36464    0.76938    0.61472    1.000
    Si2557   Si       0.41739    0.75531    0.52963    1.000
    N2558    N        0.44844    0.76627    0.55625    1.000
    N2559    N        0.39731    0.71842    0.54019    1.000
    N2560    N        0.32160    0.75686    0.68983    1.000
    N2561    N        0.27489    0.74404    0.63800    1.000
    Si2562   Si       0.47539    0.72355    0.69883    1.000
    N2563    N        0.43210    0.73551    0.69816    1.000
    Si2564   Si       0.47685    0.74523    0.63005    1.000
    N2565    N        0.39163    0.76212    0.64677    1.000
    Si2566   Si       0.41713    0.72586    0.65756    1.000
    Si2567   Si       0.41508    0.75895    0.73284    1.000
    N2568    N        0.43641    0.73650    0.49457    1.000
    Si2569   Si       0.31002    0.74323    0.80402    1.000
    N2570    N        0.28100    0.72626    0.83286    1.000
    N2571    N        0.34535    0.76188    0.82410    1.000
    N2572    N        0.32595    0.72087    0.76980    1.000
    N2573    N        0.47134    0.74931    0.99324    1.000
    N2574    N        0.39642    0.74031    0.76957    1.000
    Si2575   Si       0.41331    0.75549    0.85627    1.000
    N2576    N        0.41306    0.71904    0.83544    1.000
    N2577    N        0.24080    0.76292    0.89226    1.000
    Si2578   Si       0.27167    0.73497    0.87503    1.000
    N2579    N        0.31035    0.75358    0.88570    1.000
    N2580    N        0.27582    0.74298    0.94266    1.000
    Si2581   Si       0.31422    0.75837    0.92904    1.000
    N2582    N        0.34606    0.73094    0.94158    1.000
    Si2583   Si       0.24472    0.77169    0.93239    1.000
    Si2584   Si       0.38568    0.72932    0.92064    1.000
    Si2585   Si       0.39114    0.76042    0.98664    1.000
    N2586    N        0.38150    0.75505    0.88631    1.000
    N2587    N        0.45104    0.77221    0.87242    1.000
    N2588    N        0.40995    0.73704    0.95806    1.000
    Si2589   Si       0.44516    0.71814    0.97669    1.000
    Si2590   Si       0.31077    0.82431    0.10511    1.000
    N2591    N        0.30883    0.81481    0.02316    1.000
    N2592    N        0.29603    0.78392    0.08862    1.000
    N2593    N        0.24507    0.78901    0.03324    1.000
    Si2594   Si       0.48445    0.82130    0.19771    1.000
    N2595    N        0.42667    0.80872    0.07005    1.000
    N2596    N        0.47334    0.79075    0.10841    1.000
    Si2597   Si       0.46977    0.78395    0.06322    1.000
    N2598    N        0.41873    0.79014    0.00653    1.000
    N2599    N        0.47850    0.81181    0.02949    1.000
    Si2600   Si       0.43170    0.80519    0.11436    1.000
    Si2601   Si       0.40581    0.77685    0.04802    1.000
    Si2602   Si       0.28665    0.77762    0.04549    1.000
    Si2603   Si       0.36726    0.77895    0.11786    1.000
    N2604    N        0.24626    0.82078    0.19666    1.000
    N2605    N        0.34257    0.81143    0.13267    1.000
    Si2606   Si       0.25163    0.77853    0.18647    1.000
    N2607    N        0.28254    0.77603    0.15739    1.000
    N2608    N        0.40747    0.77233    0.13118    1.000
    N2609    N        0.44282    0.80564    0.20003    1.000
    N2610    N        0.33301    0.79962    0.32658    1.000
    N2611    N        0.30425    0.82103    0.26152    1.000
    Si2612   Si       0.32594    0.79306    0.36955    1.000
    Si2613   Si       0.29869    0.77898    0.24936    1.000
    Si2614   Si       0.31320    0.83082    0.30447    1.000
    N2615    N        0.40438    0.81402    0.29578    1.000
    N2616    N        0.32005    0.77636    0.45924    1.000
    N2617    N        0.28192    0.79246    0.37543    1.000
    N2618    N        0.35519    0.77447    0.39536    1.000
    Si2619   Si       0.24253    0.80249    0.47580    1.000
    N2620    N        0.23746    0.78310    0.43826    1.000
    Si2621   Si       0.41140    0.80306    0.47723    1.000
    Si2622   Si       0.46102    0.80242    0.41879    1.000
    Si2623   Si       0.39308    0.79101    0.40816    1.000
    N2624    N        0.43477    0.77717    0.39591    1.000
    N2625    N        0.45281    0.79897    0.46253    1.000
    N2626    N        0.25847    0.81302    0.61846    1.000
    Si2627   Si       0.39223    0.79933    0.67217    1.000
    N2628    N        0.27647    0.81628    0.49939    1.000
    Si2629   Si       0.45714    0.81916    0.63490    1.000
    Si2630   Si       0.25418    0.77388    0.59594    1.000
    Si2631   Si       0.30516    0.78331    0.49843    1.000
    N2632    N        0.44960    0.83242    0.59087    1.000
    Si2633   Si       0.36449    0.79995    0.54627    1.000
    Si2634   Si       0.42988    0.79248    0.58523    1.000
    N2635    N        0.38695    0.79010    0.58250    1.000
    N2636    N        0.39706    0.79043    0.51624    1.000
    N2637    N        0.32675    0.78946    0.62649    1.000
    Si2638   Si       0.24904    0.81809    0.65938    1.000
    N2639    N        0.29077    0.81639    0.67375    1.000
    Si2640   Si       0.34163    0.79191    0.70967    1.000
    N2641    N        0.31312    0.81195    0.73403    1.000
    N2642    N        0.35599    0.82430    0.67734    1.000
    Si2643   Si       0.32279    0.82844    0.64548    1.000
    Si2644   Si       0.43424    0.82810    0.74114    1.000
    N2645    N        0.38344    0.78211    0.71259    1.000
    N2646    N        0.33257    0.77450    0.53243    1.000
    N2647    N        0.45178    0.77793    0.62162    1.000
    N2648    N        0.42610    0.82724    0.66485    1.000
    Si2649   Si       0.29980    0.77467    0.65764    1.000
    Si2650   Si       0.31406    0.81358    0.77713    1.000
    Si2651   Si       0.25107    0.79116    0.79675    1.000
    N2652    N        0.29097    0.78021    0.79211    1.000
    N2653    N        0.35741    0.81257    0.78106    1.000
    N2654    N        0.40860    0.78627    0.82350    1.000
    Si2655   Si       0.42591    0.82747    0.82035    1.000
    N2656    N        0.46733    0.82710    0.83385    1.000
    Si2657   Si       0.37766    0.77417    0.79536    1.000
    Si2658   Si       0.48691    0.77633    0.74880    1.000
    N2659    N        0.24426    0.81546    0.93623    1.000
    N2660    N        0.34295    0.81109    0.87896    1.000
    N2661    N        0.30678    0.79786    0.94832    1.000
    Si2662   Si       0.32010    0.78804    0.98854    1.000
    N2663    N        0.46878    0.81441    0.95797    1.000
    Si2664   Si       0.38952    0.82271    0.99159    1.000
    N2665    N        0.36244    0.79074    0.97913    1.000
    Si2666   Si       0.46520    0.81243    0.87506    1.000
    Si2667   Si       0.34445    0.77012    0.86651    1.000
    Si2668   Si       0.46133    0.79215    0.99590    1.000
    N2669    N        0.44627    0.78766    0.74080    1.000
    N2670    N        0.32982    0.85534    0.08190    1.000
    Si2671   Si       0.33607    0.84508    0.03889    1.000
    N2672    N        0.25122    0.85994    0.02543    1.000
    N2673    N        0.32297    0.88143    0.02130    1.000
    Si2674   Si       0.28435    0.87527    0.00062    1.000
    Si2675   Si       0.26326    0.88444    0.12183    1.000
    Si2676   Si       0.48514    0.85449    0.02763    1.000
    N2677    N        0.40690    0.87472    0.08650    1.000
    N2678    N        0.44297    0.87045    0.02717    1.000
    Si2679   Si       0.41383    0.84795    0.05281    1.000
    N2680    N        0.37886    0.83988    0.03033    1.000
    Si2681   Si       0.41212    0.88946    0.99984    1.000
    N2682    N        0.28124    0.84503    0.12718    1.000
    Si2683   Si       0.27149    0.84632    0.17138    1.000
    Si2684   Si       0.31648    0.85194    0.23378    1.000
    N2685    N        0.34953    0.88147    0.14285    1.000
    N2686    N        0.25254    0.88353    0.16506    1.000
    Si2687   Si       0.34275    0.84381    0.16324    1.000
    N2688    N        0.31098    0.84517    0.19086    1.000
    Si2689   Si       0.42422    0.88200    0.12634    1.000
    Si2690   Si       0.38281    0.87276    0.21686    1.000
    Si2691   Si       0.46394    0.88889    0.20587    1.000
    N2692    N        0.42580    0.87277    0.21275    1.000
    N2693    N        0.48220    0.85950    0.17669    1.000
    N2694    N        0.37818    0.84026    0.18715    1.000
    Si2695   Si       0.42167    0.83785    0.18195    1.000
    N2696    N        0.42767    0.83946    0.13937    1.000
    N2697    N        0.48596    0.89339    0.24288    1.000
    N2698    N        0.35577    0.86152    0.24897    1.000
    N2699    N        0.33154    0.87103    0.31228    1.000
    Si2700   Si       0.28070    0.83667    0.36875    1.000
    N2701    N        0.24161    0.85589    0.26288    1.000
    N2702    N        0.28314    0.88663    0.36447    1.000
    Si2703   Si       0.36253    0.88360    0.28433    1.000
    N2704    N        0.49059    0.88443    0.36261    1.000
    N2705    N        0.27517    0.83724    0.32312    1.000
    Si2706   Si       0.47880    0.84973    0.33706    1.000
    Si2707   Si       0.42550    0.84864    0.30819    1.000
    N2708    N        0.46674    0.85147    0.29319    1.000
    N2709    N        0.43794    0.84081    0.34763    1.000
    N2710    N        0.40359    0.88669    0.29862    1.000
    N2711    N        0.24333    0.84954    0.39410    1.000
    N2712    N        0.34872    0.86148    0.44897    1.000
    Si2713   Si       0.35250    0.85571    0.40540    1.000
    Si2714   Si       0.25279    0.87306    0.43229    1.000
    N2715    N        0.28942    0.89163    0.49311    1.000
    N2716    N        0.32223    0.83524    0.38361    1.000
    N2717    N        0.29170    0.88881    0.43263    1.000
    N2718    N        0.40855    0.84713    0.48286    1.000
    N2719    N        0.39089    0.83435    0.40204    1.000
    Si2720   Si       0.42499    0.85643    0.38531    1.000
    Si2721   Si       0.38336    0.87742    0.46853    1.000
    N2722    N        0.45782    0.84532    0.40909    1.000
    Si2723   Si       0.32145    0.89206    0.46378    1.000
    N2724    N        0.28209    0.85446    0.55726    1.000
    Si2725   Si       0.27170    0.85662    0.51653    1.000
    Si2726   Si       0.32187    0.86416    0.57541    1.000
    N2727    N        0.35177    0.84073    0.55147    1.000
    Si2728   Si       0.25033    0.83741    0.58193    1.000
    N2729    N        0.32038    0.86155    0.61903    1.000
    Si2730   Si       0.43794    0.86472    0.50982    1.000
    Si2731   Si       0.42780    0.86951    0.58634    1.000
    N2732    N        0.41423    0.87333    0.54580    1.000
    Si2733   Si       0.37134    0.87855    0.53910    1.000
    N2734    N        0.39663    0.87688    0.61471    1.000
    Si2735   Si       0.43432    0.86150    0.69194    1.000
    N2736    N        0.46771    0.83447    0.51695    1.000
    Si2737   Si       0.25594    0.88307    0.68960    1.000
    N2738    N        0.33903    0.86687    0.73145    1.000
    Si2739   Si       0.30042    0.84629    0.71135    1.000
    N2740    N        0.26301    0.86435    0.72816    1.000
    N2741    N        0.29692    0.87854    0.67895    1.000
    N2742    N        0.40108    0.85325    0.72170    1.000
    N2743    N        0.46524    0.85284    0.72155    1.000
    Si2744   Si       0.36566    0.86370    0.69806    1.000
    Si2745   Si       0.48092    0.83390    0.55859    1.000
    N2746    N        0.29210    0.84712    0.79220    1.000
    N2747    N        0.33756    0.86754    0.84031    1.000
    Si2748   Si       0.25504    0.86074    0.77084    1.000
    Si2749   Si       0.30466    0.88316    0.81444    1.000
    N2750    N        0.40657    0.85859    0.84455    1.000
    Si2751   Si       0.37802    0.84612    0.76099    1.000
    Si2752   Si       0.37532    0.88197    0.82763    1.000
    N2753    N        0.37462    0.88529    0.78325    1.000
    N2754    N        0.41944    0.83824    0.78097    1.000
    Si2755   Si       0.32729    0.85084    0.88010    1.000
    N2756    N        0.29562    0.86311    0.96034    1.000
    N2757    N        0.28695    0.85324    0.89547    1.000
    N2758    N        0.44731    0.84283    0.89999    1.000
    N2759    N        0.41033    0.85303    0.97028    1.000
    Si2760   Si       0.43194    0.87588    0.87714    1.000
    Si2761   Si       0.44616    0.84965    0.94537    1.000
    Si2762   Si       0.28309    0.83034    0.93302    1.000
    N2763    N        0.34166    0.88403    0.90486    1.000
    Si2764   Si       0.34587    0.91540    0.01156    1.000
    N2765    N        0.29365    0.91024    0.10832    1.000
    N2766    N        0.35889    0.92477    0.08970    1.000
    N2767    N        0.47353    0.92478    0.18538    1.000
    Si2768   Si       0.33308    0.89330    0.10588    1.000
    Si2769   Si       0.46538    0.93584    0.10279    1.000
    N2770    N        0.38498    0.90866    0.02859    1.000
    Si2771   Si       0.39495    0.91271    0.06854    1.000
    N2772    N        0.42777    0.93754    0.08037    1.000
    N2773    N        0.46435    0.89355    0.11678    1.000
    Si2774   Si       0.33323    0.92402    0.23669    1.000
    N2775    N        0.36296    0.91061    0.20709    1.000
    N2776    N        0.30094    0.89384    0.23868    1.000
    N2777    N        0.40761    0.91446    0.15361    1.000
    Si2778   Si       0.43720    0.94270    0.16734    1.000
    Si2779   Si       0.36483    0.91794    0.16359    1.000
    N2780    N        0.33598    0.95085    0.15788    1.000
    N2781    N        0.32698    0.94745    0.03467    1.000
    N2782    N        0.26958    0.91722    0.99505    1.000
    N2783    N        0.27241    0.90966    0.29940    1.000
    N2784    N        0.32138    0.94059    0.33190    1.000
    Si2785   Si       0.30263    0.89974    0.32843    1.000
    N2786    N        0.35403    0.92585    0.27528    1.000
    Si2787   Si       0.24639    0.94400    0.30579    1.000
    Si2788   Si       0.26339    0.89402    0.25978    1.000
    N2789    N        0.43518    0.93916    0.26206    1.000
    Si2790   Si       0.47764    0.92848    0.26675    1.000
    N2791    N        0.44440    0.92964    0.33149    1.000
    Si2792   Si       0.41480    0.92946    0.29838    1.000
    Si2793   Si       0.48698    0.92247    0.34105    1.000
    N2794    N        0.30422    0.94776    0.39636    1.000
    N2795    N        0.33806    0.93137    0.45348    1.000
    Si2796   Si       0.30867    0.90410    0.39533    1.000
    Si2797   Si       0.26224    0.92099    0.47520    1.000
    N2798    N        0.35090    0.89526    0.39296    1.000
    Si2799   Si       0.35829    0.94430    0.48996    1.000
    N2800    N        0.48446    0.90940    0.43081    1.000
    N2801    N        0.45681    0.90112    0.49225    1.000
    Si2802   Si       0.38337    0.91693    0.40777    1.000
    N2803    N        0.41796    0.89885    0.38254    1.000
    Si2804   Si       0.42604    0.93877    0.37053    1.000
    N2805    N        0.40288    0.90719    0.44542    1.000
    Si2806   Si       0.43086    0.92824    0.47030    1.000
    N2807    N        0.34349    0.90062    0.56745    1.000
    Si2808   Si       0.35663    0.94034    0.56591    1.000
    N2809    N        0.36157    0.89642    0.50094    1.000
    N2810    N        0.45326    0.90439    0.59407    1.000
    Si2811   Si       0.42891    0.93933    0.59740    1.000
    N2812    N        0.39974    0.93978    0.56458    1.000
    N2813    N        0.24482    0.92538    0.69153    1.000
    Si2814   Si       0.26133    0.94402    0.65387    1.000
    N2815    N        0.30492    0.93373    0.63746    1.000
    Si2816   Si       0.32115    0.89539    0.64667    1.000
    N2817    N        0.36126    0.89331    0.66859    1.000
    Si2818   Si       0.43583    0.93807    0.69906    1.000
    N2819    N        0.40356    0.94325    0.63385    1.000
    N2820    N        0.42806    0.90047    0.67829    1.000
    N2821    N        0.43397    0.92387    0.74144    1.000
    Si2822   Si       0.39819    0.90389    0.64750    1.000
    N2823    N        0.36231    0.93358    0.74391    1.000
    N2824    N        0.24099    0.94612    0.50486    1.000
    N2825    N        0.23794    0.92120    0.62311    1.000
    N2826    N        0.30853    0.91305    0.78386    1.000
    Si2827   Si       0.33947    0.90053    0.75613    1.000
    Si2828   Si       0.24651    0.91982    0.82963    1.000
    N2829    N        0.28157    0.89761    0.84614    1.000
    Si2830   Si       0.41890    0.93508    0.84374    1.000
    N2831    N        0.45126    0.90988    0.85987    1.000
    N2832    N        0.38013    0.91814    0.85111    1.000
    Si2833   Si       0.39871    0.92088    0.76775    1.000
    N2834    N        0.42160    0.93252    0.80126    1.000
    Si2835   Si       0.45739    0.94335    0.77479    1.000
    Si2836   Si       0.49003    0.92801    0.85123    1.000
    N2837    N        0.33914    0.92039    0.96805    1.000
    Si2838   Si       0.24842    0.91905    0.95766    1.000
    N2839    N        0.27754    0.91486    0.92556    1.000
    Si2840   Si       0.31558    0.89717    0.93828    1.000
    Si2841   Si       0.27121    0.89508    0.88755    1.000
    N2842    N        0.46296    0.89041    0.94804    1.000
    N2843    N        0.24013    0.89368    0.79249    1.000
    Si2844   Si       0.43396    0.92017    0.93717    1.000
    N2845    N        0.40785    0.92405    0.97180    1.000
    Si2846   Si       0.37325    0.91283    0.89550    1.000
    N2847    N        0.41114    0.89712    0.90874    1.000
    Si2848   Si       0.37247    0.94756    0.96009    1.000
    Si2849   Si       0.34509    0.96310    0.06893    1.000
    N2850    N        0.33041    0.99114    0.09831    1.000
    Si2851   Si       0.25539    0.99809    0.06781    1.000
    N2852    N        0.26256    0.95704    0.05645    1.000
    Si2853   Si       0.28515    0.95145    0.01880    1.000
    Si2854   Si       0.40813    0.97669    0.08863    1.000
    N2855    N        0.38188    0.98310    0.05524    1.000
    Si2856   Si       0.39326    0.99604    0.01499    1.000
    N2857    N        0.43469    0.98422    0.00999    1.000
    Si2858   Si       0.46035    0.00028    0.04234    1.000
    N2859    N        0.44502    0.00256    0.08387    1.000
    N2860    N        0.32581    0.96391    0.22216    1.000
    Si2861   Si       0.30252    0.96576    0.18525    1.000
    Si2862   Si       0.34731    0.98541    0.13927    1.000
    Si2863   Si       0.24792    0.96295    0.23976    1.000
    N2864    N        0.29621    0.00328    0.16594    1.000
    Si2865   Si       0.34014    0.99719    0.24623    1.000
    Si2866   Si       0.40223    0.00424    0.16522    1.000
    N2867    N        0.26234    0.95406    0.19887    1.000
    N2868    N        0.38513    0.99543    0.24811    1.000
    Si2869   Si       0.42176    0.97177    0.23611    1.000
    N2870    N        0.41902    0.97281    0.19292    1.000
    N2871    N        0.39102    0.98218    0.12767    1.000
    N2872    N        0.45619    0.96442    0.13444    1.000
    N2873    N        0.32821    0.98964    0.28609    1.000
    N2874    N        0.26262    0.97596    0.27887    1.000
    Si2875   Si       0.29820    0.96796    0.35891    1.000
    Si2876   Si       0.28853    0.00397    0.30093    1.000
    Si2877   Si       0.34936    0.95588    0.30445    1.000
    N2878    N        0.29728    0.00794    0.34398    1.000
    N2879    N        0.25745    0.95458    0.34828    1.000
    N2880    N        0.39226    0.96618    0.31287    1.000
    Si2881   Si       0.39701    0.00667    0.33161    1.000
    N2882    N        0.44971    0.00527    0.24758    1.000
    Si2883   Si       0.31586    0.96390    0.43593    1.000
    Si2884   Si       0.25614    0.98145    0.48556    1.000
    N2885    N        0.33465    0.99957    0.41788    1.000
    N2886    N        0.34220    0.98825    0.47846    1.000
    N2887    N        0.27790    0.95800    0.45576    1.000
    Si2888   Si       0.47674    0.95163    0.42376    1.000
    Si2889   Si       0.46692    0.99344    0.48998    1.000
    N2890    N        0.38824    0.95651    0.38834    1.000
    N2891    N        0.45559    0.96166    0.45946    1.000
    N2892    N        0.45450    0.96336    0.38896    1.000
    Si2893   Si       0.37174    0.99522    0.39592    1.000
    Si2894   Si       0.32352    0.99339    0.51898    1.000
    N2895    N        0.35060    0.97312    0.59307    1.000
    N2896    N        0.28844    0.99626    0.60866    1.000
    N2897    N        0.28221    0.00273    0.51260    1.000
    N2898    N        0.34009    0.95405    0.52930    1.000
    N2899    N        0.45831    0.97288    0.52699    1.000
    Si2900   Si       0.41395    0.96814    0.53168    1.000
    N2901    N        0.45212    0.97840    0.59609    1.000
    Si2902   Si       0.48051    0.97498    0.56399    1.000
    N2903    N        0.39716    0.00643    0.54298    1.000
    N2904    N        0.27186    0.95688    0.74401    1.000
    Si2905   Si       0.32223    0.97080    0.62500    1.000
    N2906    N        0.35036    0.99028    0.65444    1.000
    Si2907   Si       0.28743    0.98588    0.71701    1.000
    N2908    N        0.28221    0.98024    0.67512    1.000
    N2909    N        0.32959    0.99347    0.72009    1.000
    Si2910   Si       0.26295    0.00263    0.64305    1.000
    Si2911   Si       0.36716    0.97160    0.72492    1.000
    Si2912   Si       0.47403    0.00454    0.68826    1.000
    Si2913   Si       0.39283    0.97890    0.65486    1.000
    N2914    N        0.40041    0.96663    0.69735    1.000
    N2915    N        0.47162    0.96127    0.68724    1.000
    Si2916   Si       0.36643    0.00808    0.57314    1.000
    N2917    N        0.40143    0.94853    0.49499    1.000
    N2918    N        0.32155    0.98551    0.78483    1.000
    N2919    N        0.26372    0.95880    0.81346    1.000
    N2920    N        0.33481    0.99208    0.86587    1.000
    Si2921   Si       0.25087    0.00146    0.81206    1.000
    Si2922   Si       0.29288    0.95293    0.78218    1.000
    Si2923   Si       0.32493    0.00578    0.82381    1.000
    N2924    N        0.45234    0.98775    0.76725    1.000
    N2925    N        0.38315    0.99992    0.75434    1.000
    N2926    N        0.42412    0.97476    0.86211    1.000
    N2927    N        0.32756    0.00017    0.92785    1.000
    N2928    N        0.26045    0.98676    0.90289    1.000
    Si2929   Si       0.32428    0.00206    0.97277    1.000
    Si2930   Si       0.36103    0.98989    0.90152    1.000
    N2931    N        0.28739    0.98352    0.98812    1.000
    Si2932   Si       0.30128    0.99924    0.89293    1.000
    N2933    N        0.36441    0.98355    0.98410    1.000
    N2934    N        0.45052    0.96013    0.93387    1.000
    Si2935   Si       0.45646    0.97599    0.89477    1.000
    Si2936   Si       0.44725    0.98978    0.96856    1.000
    N2937    N        0.37220    0.95155    0.91731    1.000
    N2938    N        0.48940    0.00528    0.97385    1.000
    N2939    N        0.49213    0.96519    0.87388    1.000
    N2940    N        0.57527    0.05072    0.11295    1.000
    Si2941   Si       0.58892    0.01295    0.09980    1.000
    Si2942   Si       0.50197    0.05942    0.11405    1.000
    N2943    N        0.58170    0.06175    0.04184    1.000
    N2944    N        0.67287    0.03140    0.16956    1.000
    Si2945   Si       0.66436    0.04949    0.20906    1.000
    N2946    N        0.51940    0.06505    0.00511    1.000
    N2947    N        0.61581    0.01091    0.06541    1.000
    Si2948   Si       0.61756    0.04145    0.03159    1.000
    N2949    N        0.67876    0.05956    0.10432    1.000
    Si2950   Si       0.68314    0.03737    0.06757    1.000
    N2951    N        0.72579    0.03330    0.05375    1.000
    N2952    N        0.65622    0.06207    0.04320    1.000
    N2953    N        0.50142    0.01920    0.13168    1.000
    Si2954   Si       0.59246    0.03364    0.20855    1.000
    N2955    N        0.55935    0.03923    0.17931    1.000
    Si2956   Si       0.52191    0.01671    0.17372    1.000
    N2957    N        0.67895    0.02532    0.24465    1.000
    Si2958   Si       0.69566    0.05881    0.14496    1.000
    N2959    N        0.73762    0.06083    0.14786    1.000
    N2960    N        0.51928    0.06473    0.07506    1.000
    Si2961   Si       0.49381    0.06633    0.03963    1.000
    N2962    N        0.51686    0.02339    0.26618    1.000
    N2963    N        0.54987    0.05724    0.35787    1.000
    Si2964   Si       0.50725    0.05173    0.35156    1.000
    Si2965   Si       0.49814    0.06114    0.27804    1.000
    Si2966   Si       0.55942    0.01250    0.26645    1.000
    N2967    N        0.49860    0.01248    0.36780    1.000
    N2968    N        0.58040    0.04469    0.24962    1.000
    N2969    N        0.64694    0.04794    0.29794    1.000
    N2970    N        0.72796    0.02493    0.29928    1.000
    Si2971   Si       0.72177    0.02198    0.25700    1.000
    N2972    N        0.62042    0.01430    0.35784    1.000
    N2973    N        0.69203    0.01212    0.36089    1.000
    Si2974   Si       0.65316    0.01176    0.27554    1.000
    N2975    N        0.59478    0.04854    0.41259    1.000
    Si2976   Si       0.55663    0.03875    0.39529    1.000
    N2977    N        0.52794    0.04317    0.42834    1.000
    Si2978   Si       0.58879    0.03663    0.45388    1.000
    Si2979   Si       0.69444    0.01985    0.40400    1.000
    N2980    N        0.73403    0.03197    0.40923    1.000
    Si2981   Si       0.62792    0.04835    0.38546    1.000
    N2982    N        0.66486    0.05054    0.40945    1.000
    N2983    N        0.62419    0.02274    0.47352    1.000
    Si2984   Si       0.64796    0.05171    0.49483    1.000
    N2985    N        0.50784    0.00829    0.48985    1.000
    Si2986   Si       0.52569    0.00631    0.45107    1.000
    N2987    N        0.57201    0.03892    0.60385    1.000
    N2988    N        0.56983    0.02640    0.53542    1.000
    Si2989   Si       0.58172    0.06661    0.52415    1.000
    N2990    N        0.50447    0.01210    0.56006    1.000
    Si2991   Si       0.58731    0.01201    0.57317    1.000
    Si2992   Si       0.71746    0.02373    0.50974    1.000
    N2993    N        0.72472    0.04901    0.58376    1.000
    N2994    N        0.67835    0.03915    0.52268    1.000
    Si2995   Si       0.65281    0.05490    0.55628    1.000
    N2996    N        0.62943    0.02349    0.57450    1.000
    Si2997   Si       0.73313    0.05772    0.73962    1.000
    Si2998   Si       0.50556    0.05916    0.64723    1.000
    Si2999   Si       0.57384    0.03383    0.64760    1.000
    Si3000   Si       0.54366    0.03121    0.71381    1.000
    N3001    N        0.54115    0.04718    0.67189    1.000
    N3002    N        0.60958    0.05550    0.65765    1.000
    N3003    N        0.69114    0.04479    0.74648    1.000
    Si3004   Si       0.65075    0.04496    0.66563    1.000
    N3005    N        0.66854    0.03867    0.62815    1.000
    N3006    N        0.58007    0.00785    0.72281    1.000
    Si3007   Si       0.67530    0.00823    0.72674    1.000
    N3008    N        0.53860    0.04269    0.81532    1.000
    Si3009   Si       0.51841    0.06275    0.84856    1.000
    Si3010   Si       0.60888    0.01436    0.75744    1.000
    Si3011   Si       0.52411    0.06290    0.77899    1.000
    N3012    N        0.48468    0.04370    0.77274    1.000
    N3013    N        0.63524    0.03546    0.83276    1.000
    N3014    N        0.70796    0.02721    0.83013    1.000
    N3015    N        0.62616    0.05372    0.76325    1.000
    Si3016   Si       0.67353    0.05237    0.84155    1.000
    N3017    N        0.52215    0.03533    0.88221    1.000
    Si3018   Si       0.51038    0.04309    0.96933    1.000
    N3019    N        0.54872    0.04150    0.94972    1.000
    N3020    N        0.71679    0.02694    0.98495    1.000
    Si3021   Si       0.68423    0.02272    0.90416    1.000
    Si3022   Si       0.73014    0.05015    0.94971    1.000
    N3023    N        0.72824    0.02224    0.91736    1.000
    N3024    N        0.67916    0.06051    0.88194    1.000
    N3025    N        0.62207    0.02943    0.99034    1.000
    Si3026   Si       0.63117    0.05796    0.95592    1.000
    N3027    N        0.65626    0.02685    0.93588    1.000
    Si3028   Si       0.55573    0.08558    0.01558    1.000
    Si3029   Si       0.56263    0.07750    0.07851    1.000
    N3030    N        0.58426    0.11285    0.09217    1.000
    N3031    N        0.54948    0.12000    0.04059    1.000
    Si3032   Si       0.66501    0.10511    0.03341    1.000
    Si3033   Si       0.67023    0.10422    0.11014    1.000
    N3034    N        0.70140    0.10995    0.00857    1.000
    N3035    N        0.68480    0.11774    0.07032    1.000
    N3036    N        0.62539    0.12332    0.02933    1.000
    Si3037   Si       0.60812    0.10863    0.19957    1.000
    N3038    N        0.52096    0.08324    0.14379    1.000
    Si3039   Si       0.49850    0.11084    0.17262    1.000
    N3040    N        0.58717    0.10384    0.16200    1.000
    N3041    N        0.58825    0.12037    0.23822    1.000
    Si3042   Si       0.56227    0.06870    0.14938    1.000
    N3043    N        0.68710    0.08493    0.21418    1.000
    Si3044   Si       0.72573    0.09733    0.23602    1.000
    N3045    N        0.62179    0.06607    0.20567    1.000
    N3046    N        0.68304    0.09983    0.15216    1.000
    Si3047   Si       0.67865    0.12058    0.18964    1.000
    Si3048   Si       0.57188    0.09267    0.34122    1.000
    N3049    N        0.59416    0.09102    0.30341    1.000
    N3050    N        0.53225    0.08923    0.26976    1.000
    Si3051   Si       0.57604    0.08693    0.26397    1.000
    N3052    N        0.53579    0.11606    0.33115    1.000
    Si3053   Si       0.51916    0.12402    0.29241    1.000
    N3054    N        0.62508    0.08197    0.35884    1.000
    Si3055   Si       0.63554    0.08483    0.31629    1.000
    N3056    N        0.66261    0.11962    0.31658    1.000
    N3057    N        0.73481    0.09761    0.32301    1.000
    N3058    N        0.65600    0.08603    0.47173    1.000
    N3059    N        0.57846    0.07228    0.48025    1.000
    Si3060   Si       0.56906    0.11457    0.47737    1.000
    Si3061   Si       0.70469    0.12233    0.30612    1.000
    Si3062   Si       0.67111    0.08695    0.43098    1.000
    N3063    N        0.64556    0.11641    0.41547    1.000
    N3064    N        0.71221    0.09888    0.42672    1.000
    Si3065   Si       0.62433    0.12137    0.37909    1.000
    N3066    N        0.52926    0.11193    0.49434    1.000
    N3067    N        0.55720    0.08993    0.55294    1.000
    Si3068   Si       0.51895    0.10481    0.53558    1.000
    Si3069   Si       0.55710    0.07918    0.59510    1.000
    Si3070   Si       0.67553    0.10936    0.67229    1.000
    N3071    N        0.66783    0.08876    0.58111    1.000
    Si3072   Si       0.63388    0.11214    0.50398    1.000
    N3073    N        0.62631    0.07677    0.52862    1.000
    N3074    N        0.70736    0.09258    0.64454    1.000
    N3075    N        0.57543    0.10891    0.62576    1.000
    Si3076   Si       0.56414    0.10131    0.72861    1.000
    N3077    N        0.59105    0.11318    0.69463    1.000
    Si3078   Si       0.60420    0.09930    0.65631    1.000
    N3079    N        0.48964    0.09558    0.66536    1.000
    N3080    N        0.66062    0.07481    0.69570    1.000
    Si3081   Si       0.66134    0.07530    0.74028    1.000
    N3082    N        0.64217    0.12450    0.64848    1.000
    N3083    N        0.54610    0.06392    0.74142    1.000
    Si3084   Si       0.69543    0.06928    0.61031    1.000
    N3085    N        0.51566    0.07117    0.60463    1.000
    N3086    N        0.51548    0.10623    0.78422    1.000
    N3087    N        0.53453    0.10255    0.85129    1.000
    N3088    N        0.59599    0.09515    0.81180    1.000
    N3089    N        0.66399    0.08557    0.81729    1.000
    N3090    N        0.67198    0.11350    0.76135    1.000
    N3091    N        0.73062    0.11898    0.81116    1.000
    Si3092   Si       0.68798    0.12190    0.80409    1.000
    Si3093   Si       0.62785    0.06721    0.80492    1.000
    N3094    N        0.58100    0.09459    0.98296    1.000
    Si3095   Si       0.56660    0.08130    0.94196    1.000
    N3096    N        0.54060    0.11085    0.92082    1.000
    N3097    N        0.60645    0.07740    0.92522    1.000
    N3098    N        0.71900    0.12234    0.88432    1.000
    Si3099   Si       0.49654    0.12605    0.74995    1.000
    Si3100   Si       0.68723    0.09665    0.90175    1.000
    Si3101   Si       0.68739    0.11792    0.96757    1.000
    Si3102   Si       0.61556    0.11914    0.91390    1.000
    N3103    N        0.65132    0.09280    0.97207    1.000
    N3104    N        0.70970    0.08895    0.93967    1.000
    Si3105   Si       0.51162    0.13790    0.05156    1.000
    Si3106   Si       0.58986    0.13526    0.05625    1.000
    N3107    N        0.59222    0.17915    0.05521    1.000
    N3108    N        0.51622    0.17796    0.03360    1.000
    N3109    N        0.49221    0.14038    0.09113    1.000
    Si3110   Si       0.49611    0.17062    0.12164    1.000
    N3111    N        0.70906    0.16790    0.10454    1.000
    Si3112   Si       0.66543    0.17479    0.11036    1.000
    Si3113   Si       0.72398    0.13555    0.07863    1.000
    N3114    N        0.64286    0.13678    0.11520    1.000
    N3115    N        0.50905    0.14986    0.15735    1.000
    N3116    N        0.59315    0.17098    0.13966    1.000
    Si3117   Si       0.51811    0.16715    0.19755    1.000
    N3118    N        0.55553    0.17580    0.21596    1.000
    Si3119   Si       0.60102    0.12860    0.12865    1.000
    N3120    N        0.50064    0.13034    0.21466    1.000
    N3121    N        0.63945    0.13877    0.18809    1.000
    N3122    N        0.70807    0.14839    0.20322    1.000
    Si3123   Si       0.62690    0.17503    0.16612    1.000
    Si3124   Si       0.70281    0.16404    0.24493    1.000
    N3125    N        0.54032    0.15932    0.28152    1.000
    Si3126   Si       0.54670    0.14814    0.35875    1.000
    Si3127   Si       0.57399    0.15916    0.25334    1.000
    N3128    N        0.58444    0.13004    0.36669    1.000
    Si3129   Si       0.66340    0.16232    0.33207    1.000
    N3130    N        0.70785    0.16446    0.32465    1.000
    N3131    N        0.66539    0.18424    0.24779    1.000
    Si3132   Si       0.68555    0.15717    0.49559    1.000
    N3133    N        0.51494    0.14928    0.38635    1.000
    N3134    N        0.50227    0.16848    0.45319    1.000
    Si3135   Si       0.53467    0.16356    0.42439    1.000
    N3136    N        0.55811    0.13061    0.43965    1.000
    Si3137   Si       0.49979    0.12862    0.47033    1.000
    Si3138   Si       0.72617    0.14018    0.43763    1.000
    N3139    N        0.64997    0.15576    0.37177    1.000
    N3140    N        0.70470    0.16890    0.41210    1.000
    N3141    N        0.66259    0.16572    0.45707    1.000
    Si3142   Si       0.66401    0.15464    0.41493    1.000
    N3143    N        0.72067    0.13607    0.48085    1.000
    N3144    N        0.59900    0.13768    0.50006    1.000
    N3145    N        0.70609    0.12452    0.26303    1.000
    N3146    N        0.53882    0.16394    0.59384    1.000
    Si3147   Si       0.49667    0.16189    0.58306    1.000
    N3148    N        0.49720    0.13934    0.54745    1.000
    Si3149   Si       0.59977    0.18250    0.50480    1.000
    Si3150   Si       0.73677    0.12822    0.70960    1.000
    N3151    N        0.63380    0.15341    0.58333    1.000
    N3152    N        0.70132    0.15461    0.58551    1.000
    N3153    N        0.66393    0.13537    0.52372    1.000
    Si3154   Si       0.66862    0.13171    0.56844    1.000
    Si3155   Si       0.55742    0.14893    0.62908    1.000
    N3156    N        0.59277    0.17245    0.64156    1.000
    Si3157   Si       0.60558    0.14779    0.71832    1.000
    Si3158   Si       0.53683    0.16622    0.70001    1.000
    N3159    N        0.52892    0.15490    0.65898    1.000
    N3160    N        0.52909    0.13044    0.72230    1.000
    Si3161   Si       0.67847    0.15010    0.73950    1.000
    Si3162   Si       0.48986    0.13935    0.65252    1.000
    N3163    N        0.69461    0.13287    0.70151    1.000
    Si3164   Si       0.63103    0.16092    0.62591    1.000
    N3165    N        0.64194    0.16952    0.72917    1.000
    N3166    N        0.55347    0.15389    0.81342    1.000
    Si3167   Si       0.58933    0.13392    0.79762    1.000
    N3168    N        0.58785    0.12951    0.75454    1.000
    N3169    N        0.61085    0.17142    0.81137    1.000
    Si3170   Si       0.51863    0.12897    0.82238    1.000
    Si3171   Si       0.67912    0.15875    0.88114    1.000
    Si3172   Si       0.49191    0.18189    0.86480    1.000
    N3173    N        0.70497    0.17468    0.76606    1.000
    N3174    N        0.67680    0.15286    0.83508    1.000
    Si3175   Si       0.55123    0.12783    0.88351    1.000
    N3176    N        0.53093    0.16696    0.87951    1.000
    N3177    N        0.50354    0.13605    0.98125    1.000
    N3178    N        0.60093    0.14113    0.94945    1.000
    N3179    N        0.52733    0.17691    0.94291    1.000
    Si3180   Si       0.57210    0.17492    0.95037    1.000
    Si3181   Si       0.50934    0.13689    0.93763    1.000
    Si3182   Si       0.51802    0.17836    0.98825    1.000
    N3183    N        0.59230    0.13303    0.87956    1.000
    N3184    N        0.71216    0.15136    0.94943    1.000
    N3185    N        0.65738    0.15402    0.98254    1.000
    Si3186   Si       0.67970    0.18265    0.96135    1.000
    N3187    N        0.65764    0.12866    0.90412    1.000
    Si3188   Si       0.62127    0.12176    0.98612    1.000
    N3189    N        0.52629    0.19833    0.10354    1.000
    Si3190   Si       0.57236    0.20699    0.02726    1.000
    N3191    N        0.58964    0.22844    0.10407    1.000
    Si3192   Si       0.51508    0.21081    0.06320    1.000
    N3193    N        0.60527    0.23700    0.03542    1.000
    N3194    N        0.54363    0.23625    0.04107    1.000
    Si3195   Si       0.61386    0.21299    0.07145    1.000
    N3196    N        0.65558    0.20757    0.08549    1.000
    N3197    N        0.72260    0.23891    0.08661    1.000
    Si3198   Si       0.73428    0.20378    0.11028    1.000
    Si3199   Si       0.67866    0.24573    0.08919    1.000
    N3200    N        0.49385    0.20173    0.20300    1.000
    Si3201   Si       0.56303    0.20222    0.12676    1.000
    N3202    N        0.54902    0.22187    0.16405    1.000
    Si3203   Si       0.57364    0.21366    0.20052    1.000
    N3204    N        0.61572    0.20548    0.19446    1.000
    N3205    N        0.73083    0.21729    0.15166    1.000
    N3206    N        0.66390    0.19130    0.15104    1.000
    Si3207   Si       0.68774    0.22687    0.16019    1.000
    N3208    N        0.68068    0.23726    0.20079    1.000
    Si3209   Si       0.64834    0.21510    0.22010    1.000
    N3210    N        0.53000    0.22669    0.28105    1.000
    Si3211   Si       0.57285    0.22759    0.27012    1.000
    N3212    N        0.59771    0.19147    0.26541    1.000
    Si3213   Si       0.52385    0.19184    0.30680    1.000
    N3214    N        0.54957    0.18780    0.34240    1.000
    Si3215   Si       0.67458    0.23394    0.33591    1.000
    N3216    N        0.65075    0.20047    0.31810    1.000
    N3217    N        0.71068    0.23287    0.31237    1.000
    Si3218   Si       0.63893    0.20555    0.27757    1.000
    Si3219   Si       0.73256    0.19494    0.30872    1.000
    N3220    N        0.73569    0.18452    0.26546    1.000
    Si3221   Si       0.54022    0.21595    0.37365    1.000
    N3222    N        0.49864    0.21254    0.38909    1.000
    N3223    N        0.51267    0.23396    0.47252    1.000
    Si3224   Si       0.57742    0.22041    0.43632    1.000
    N3225    N        0.57309    0.20112    0.47615    1.000
    N3226    N        0.55517    0.19644    0.40929    1.000
    Si3227   Si       0.70111    0.21466    0.40684    1.000
    N3228    N        0.68336    0.22867    0.44394    1.000
    N3229    N        0.61955    0.21618    0.42683    1.000
    Si3230   Si       0.64844    0.20682    0.45787    1.000
    N3231    N        0.73679    0.24052    0.40768    1.000
    N3232    N        0.67171    0.23025    0.37750    1.000
    N3233    N        0.64806    0.24448    0.25725    1.000
    N3234    N        0.52249    0.20894    0.53874    1.000
    N3235    N        0.56390    0.23218    0.58792    1.000
    Si3236   Si       0.55180    0.19590    0.56831    1.000
    N3237    N        0.58588    0.20142    0.54026    1.000
    Si3238   Si       0.54539    0.22324    0.50271    1.000
    Si3239   Si       0.58315    0.24474    0.55021    1.000
    N3240    N        0.67019    0.22334    0.56754    1.000
    Si3241   Si       0.66863    0.21982    0.52413    1.000
    Si3242   Si       0.68776    0.19609    0.59709    1.000
    N3243    N        0.72645    0.21590    0.61049    1.000
    N3244    N        0.70213    0.19222    0.51567    1.000
    N3245    N        0.63752    0.20473    0.50028    1.000
    Si3246   Si       0.59011    0.20325    0.67084    1.000
    N3247    N        0.52440    0.19938    0.72787    1.000
    N3248    N        0.56149    0.23244    0.66035    1.000
    Si3249   Si       0.56573    0.20930    0.74395    1.000
    N3250    N        0.57883    0.18199    0.70748    1.000
    N3251    N        0.65831    0.19386    0.63011    1.000
    Si3252   Si       0.72935    0.24521    0.64473    1.000
    Si3253   Si       0.63687    0.21273    0.72492    1.000
    Si3254   Si       0.65526    0.23199    0.65109    1.000
    N3255    N        0.67431    0.23311    0.73926    1.000
    N3256    N        0.62851    0.21907    0.68241    1.000
    N3257    N        0.69346    0.23647    0.66781    1.000
    N3258    N        0.73690    0.22486    0.74067    1.000
    N3259    N        0.55194    0.21288    0.78662    1.000
    N3260    N        0.56665    0.22052    0.85451    1.000
    Si3261   Si       0.52025    0.23150    0.80988    1.000
    N3262    N        0.49886    0.21959    0.84423    1.000
    Si3263   Si       0.57327    0.19296    0.81988    1.000
    Si3264   Si       0.71630    0.23207    0.89312    1.000
    Si3265   Si       0.69445    0.21986    0.77450    1.000
    N3266    N        0.66450    0.21711    0.80580    1.000
    N3267    N        0.73464    0.23603    0.85301    1.000
    Si3268   Si       0.62565    0.20899    0.90597    1.000
    N3269    N        0.56108    0.18907    0.99018    1.000
    N3270    N        0.52404    0.23510    0.90635    1.000
    Si3271   Si       0.55077    0.20472    0.89065    1.000
    N3272    N        0.58573    0.19805    0.91561    1.000
    Si3273   Si       0.49543    0.21027    0.93145    1.000
    N3274    N        0.70434    0.19190    0.89869    1.000
    N3275    N        0.64430    0.18992    0.87218    1.000
    Si3276   Si       0.73627    0.18925    0.93477    1.000
    N3277    N        0.70487    0.21606    0.96779    1.000
    N3278    N        0.65087    0.20806    0.94070    1.000
    Si3279   Si       0.64816    0.18237    0.82903    1.000
    N3280    N        0.60232    0.23376    0.74520    1.000
    Si3281   Si       0.57315    0.27047    0.03456    1.000
    Si3282   Si       0.51133    0.26635    0.02594    1.000
    N3283    N        0.57151    0.29273    0.07481    1.000
    Si3284   Si       0.57749    0.26886    0.11291    1.000
    N3285    N        0.54687    0.28389    0.00077    1.000
    N3286    N        0.50586    0.29894    0.05458    1.000
    N3287    N        0.60878    0.29882    0.02585    1.000
    Si3288   Si       0.69202    0.29893    0.13278    1.000
    N3289    N        0.66044    0.26852    0.05634    1.000
    Si3290   Si       0.63598    0.26519    0.02058    1.000
    Si3291   Si       0.67743    0.26623    0.23298    1.000
    N3292    N        0.53518    0.27193    0.12254    1.000
    Si3293   Si       0.55714    0.28494    0.22002    1.000
    N3294    N        0.52391    0.28356    0.19176    1.000
    Si3295   Si       0.52051    0.25464    0.15988    1.000
    N3296    N        0.60174    0.29372    0.13761    1.000
    N3297    N        0.57137    0.24603    0.22928    1.000
    N3298    N        0.65446    0.29918    0.21674    1.000
    N3299    N        0.72756    0.30046    0.15931    1.000
    N3300    N        0.67662    0.25805    0.13132    1.000
    Si3301   Si       0.50851    0.26442    0.27287    1.000
    Si3302   Si       0.57298    0.26489    0.33552    1.000
    N3303    N        0.59453    0.25153    0.29808    1.000
    N3304    N        0.53535    0.25083    0.34952    1.000
    N3305    N        0.53963    0.29348    0.26056    1.000
    Si3306   Si       0.49667    0.27454    0.34874    1.000
    N3307    N        0.59744    0.24371    0.36740    1.000
    Si3308   Si       0.63215    0.27197    0.29003    1.000
    N3309    N        0.65981    0.27324    0.32422    1.000
    N3310    N        0.70827    0.28681    0.25827    1.000
    Si3311   Si       0.72141    0.27439    0.29811    1.000
    Si3312   Si       0.70705    0.25488    0.47011    1.000
    N3313    N        0.49117    0.27821    0.42544    1.000
    N3314    N        0.56420    0.26181    0.43545    1.000
    Si3315   Si       0.52506    0.26987    0.45184    1.000
    Si3316   Si       0.58999    0.29494    0.42610    1.000
    N3317    N        0.71827    0.29139    0.44761    1.000
    Si3318   Si       0.72505    0.28332    0.40443    1.000
    N3319    N        0.62788    0.28320    0.41080    1.000
    Si3320   Si       0.63175    0.24353    0.39357    1.000
    N3321    N        0.56422    0.26135    0.51442    1.000
    N3322    N        0.51420    0.26855    0.61393    1.000
    Si3323   Si       0.56697    0.30196    0.49598    1.000
    N3324    N        0.61513    0.27134    0.55970    1.000
    Si3325   Si       0.65373    0.26069    0.58194    1.000
    N3326    N        0.68527    0.28777    0.57331    1.000
    N3327    N        0.68601    0.25832    0.50882    1.000
    Si3328   Si       0.68315    0.29750    0.52983    1.000
    N3329    N        0.57156    0.29268    0.62340    1.000
    Si3330   Si       0.55272    0.25223    0.62441    1.000
    Si3331   Si       0.61478    0.29819    0.62350    1.000
    N3332    N        0.73129    0.28652    0.63037    1.000
    N3333    N        0.64430    0.28730    0.72313    1.000
    N3334    N        0.64315    0.26534    0.62427    1.000
    N3335    N        0.71456    0.28282    0.71710    1.000
    Si3336   Si       0.71275    0.23970    0.70750    1.000
    N3337    N        0.54235    0.26915    0.81646    1.000
    Si3338   Si       0.57190    0.26330    0.84790    1.000
    N3339    N        0.61082    0.26067    0.83118    1.000
    Si3340   Si       0.61657    0.27392    0.75420    1.000
    N3341    N        0.71125    0.26045    0.78493    1.000
    N3342    N        0.67801    0.26801    0.85003    1.000
    Si3343   Si       0.65080    0.25567    0.81817    1.000
    N3344    N        0.64843    0.28550    0.78510    1.000
    Si3345   Si       0.71792    0.26796    0.82922    1.000
    Si3346   Si       0.68045    0.28130    0.75206    1.000
    N3347    N        0.56567    0.29323    0.87946    1.000
    Si3348   Si       0.50638    0.27284    0.90781    1.000
    Si3349   Si       0.59867    0.28904    0.90898    1.000
    Si3350   Si       0.71567    0.29836    0.92468    1.000
    N3351    N        0.62383    0.25377    0.90341    1.000
    N3352    N        0.69098    0.26081    0.91447    1.000
    Si3353   Si       0.66030    0.28051    0.88791    1.000
    N3354    N        0.65703    0.27000    0.98243    1.000
    Si3355   Si       0.67434    0.24292    0.95088    1.000
    Si3356   Si       0.59711    0.32472    0.05891    1.000
    N3357    N        0.52782    0.33986    0.10661    1.000
    N3358    N        0.57123    0.35762    0.05070    1.000
    Si3359   Si       0.73430    0.31825    0.06736    1.000
    N3360    N        0.63122    0.33056    0.08665    1.000
    N3361    N        0.67560    0.32649    0.02384    1.000
    Si3362   Si       0.66363    0.31140    0.06327    1.000
    N3363    N        0.69792    0.31300    0.09129    1.000
    N3364    N        0.58431    0.31764    0.21362    1.000
    Si3365   Si       0.50195    0.32055    0.18963    1.000
    Si3366   Si       0.59393    0.35267    0.18935    1.000
    N3367    N        0.52721    0.35356    0.17788    1.000
    Si3368   Si       0.62419    0.32771    0.12973    1.000
    Si3369   Si       0.66570    0.33206    0.19235    1.000
    Si3370   Si       0.62231    0.32021    0.23519    1.000
    N3371    N        0.70282    0.34650    0.20901    1.000
    Si3372   Si       0.72214    0.32429    0.24423    1.000
    N3373    N        0.63293    0.35698    0.20897    1.000
    N3374    N        0.66484    0.32719    0.15023    1.000
    Si3375   Si       0.53030    0.29979    0.08845    1.000
    Si3376   Si       0.55201    0.32209    0.29005    1.000
    N3377    N        0.51448    0.34613    0.29287    1.000
    Si3378   Si       0.54153    0.32589    0.36249    1.000
    N3379    N        0.49886    0.31630    0.36187    1.000
    N3380    N        0.57884    0.35703    0.29003    1.000
    N3381    N        0.56491    0.30683    0.33013    1.000
    Si3382   Si       0.62289    0.34994    0.30263    1.000
    N3383    N        0.62451    0.31312    0.27894    1.000
    N3384    N        0.66464    0.34806    0.33125    1.000
    N3385    N        0.71943    0.31026    0.32410    1.000
    Si3386   Si       0.67830    0.30867    0.34218    1.000
    N3387    N        0.71647    0.35959    0.27011    1.000
    N3388    N        0.56923    0.32157    0.39757    1.000
    N3389    N        0.59664    0.31097    0.46627    1.000
    Si3390   Si       0.49694    0.33204    0.49142    1.000
    Si3391   Si       0.59281    0.35696    0.39056    1.000
    N3392    N        0.52794    0.30659    0.47594    1.000
    Si3393   Si       0.63254    0.33132    0.48293    1.000
    Si3394   Si       0.70809    0.32751    0.46972    1.000
    Si3395   Si       0.65729    0.31545    0.41350    1.000
    N3396    N        0.66573    0.32517    0.45628    1.000
    N3397    N        0.63603    0.35115    0.39768    1.000
    Si3398   Si       0.49076    0.35433    0.25831    1.000
    N3399    N        0.72340    0.36587    0.45595    1.000
    N3400    N        0.68813    0.30037    0.38547    1.000
    Si3401   Si       0.53945    0.34873    0.54952    1.000
    N3402    N        0.53642    0.34204    0.59028    1.000
    N3403    N        0.57701    0.33361    0.52789    1.000
    N3404    N        0.49945    0.33338    0.53435    1.000
    Si3405   Si       0.52984    0.30950    0.61706    1.000
    Si3406   Si       0.61154    0.31328    0.55048    1.000
    N3407    N        0.61888    0.33078    0.58912    1.000
    N3408    N        0.71595    0.32042    0.51312    1.000
    N3409    N        0.64400    0.31710    0.52199    1.000
    Si3410   Si       0.70703    0.31107    0.60143    1.000
    N3411    N        0.73671    0.33546    0.58319    1.000
    N3412    N        0.68104    0.33863    0.62019    1.000
    N3413    N        0.54817    0.32996    0.70452    1.000
    N3414    N        0.50874    0.33465    0.64703    1.000
    Si3415   Si       0.58377    0.33763    0.68107    1.000
    Si3416   Si       0.51131    0.34645    0.69025    1.000
    N3417    N        0.61256    0.35072    0.71289    1.000
    N3418    N        0.61724    0.31518    0.66156    1.000
    Si3419   Si       0.64256    0.32021    0.69823    1.000
    Si3420   Si       0.71021    0.32615    0.72176    1.000
    Si3421   Si       0.69795    0.35333    0.65572    1.000
    N3422    N        0.68267    0.33310    0.68891    1.000
    Si3423   Si       0.55171    0.32229    0.74697    1.000
    N3424    N        0.53545    0.33802    0.82542    1.000
    Si3425   Si       0.56057    0.33389    0.86097    1.000
    N3426    N        0.51295    0.31526    0.76510    1.000
    N3427    N        0.59619    0.35730    0.84924    1.000
    Si3428   Si       0.51631    0.30205    0.80614    1.000
    N3429    N        0.71135    0.30286    0.96728    1.000
    N3430    N        0.63080    0.31213    0.88991    1.000
    N3431    N        0.72760    0.30811    0.83992    1.000
    N3432    N        0.69017    0.32630    0.75925    1.000
    Si3433   Si       0.70391    0.33879    0.85486    1.000
    N3434    N        0.66666    0.33874    0.83277    1.000
    Si3435   Si       0.66079    0.32881    0.79050    1.000
    Si3436   Si       0.63373    0.34574    0.86385    1.000
    N3437    N        0.49544    0.30522    0.88096    1.000
    N3438    N        0.54425    0.35586    0.97758    1.000
    Si3439   Si       0.55055    0.31287    0.96670    1.000
    Si3440   Si       0.50763    0.33946    0.90981    1.000
    N3441    N        0.58953    0.31250    0.94638    1.000
    N3442    N        0.51618    0.30543    0.93964    1.000
    N3443    N        0.54249    0.35786    0.89333    1.000
    Si3444   Si       0.61410    0.34670    0.95855    1.000
    Si3445   Si       0.67856    0.35762    0.91922    1.000
    N3446    N        0.65656    0.33762    0.95198    1.000
    N3447    N        0.69592    0.32437    0.89703    1.000
    Si3448   Si       0.67271    0.31129    0.98196    1.000
    N3449    N        0.58312    0.29854    0.76218    1.000
    N3450    N        0.50919    0.38718    0.05638    1.000
    Si3451   Si       0.57117    0.37373    0.01073    1.000
    Si3452   Si       0.54379    0.37186    0.08005    1.000
    N3453    N        0.55715    0.39652    0.11433    1.000
    N3454    N        0.56134    0.41459    0.01238    1.000
    N3455    N        0.73788    0.36375    0.12125    1.000
    N3456    N        0.66296    0.39216    0.03915    1.000
    Si3457   Si       0.72488    0.38729    0.08703    1.000
    Si3458   Si       0.69575    0.36741    0.02565    1.000
    Si3459   Si       0.63978    0.40010    0.00420    1.000
    N3460    N        0.69379    0.41337    0.10241    1.000
    Si3461   Si       0.66144    0.41800    0.07420    1.000
    N3462    N        0.60197    0.36091    0.14784    1.000
    N3463    N        0.50571    0.39192    0.23908    1.000
    N3464    N        0.57151    0.38762    0.20672    1.000
    Si3465   Si       0.59906    0.40015    0.12669    1.000
    Si3466   Si       0.53009    0.38715    0.20523    1.000
    Si3467   Si       0.52716    0.38436    0.14306    1.000
    N3468    N        0.52473    0.41578    0.17279    1.000
    N3469    N        0.68452    0.40817    0.22305    1.000
    Si3470   Si       0.64546    0.39115    0.23407    1.000
    Si3471   Si       0.71532    0.38326    0.23232    1.000
    N3472    N        0.62186    0.41794    0.09454    1.000
    N3473    N        0.72994    0.35845    0.05339    1.000
    Si3474   Si       0.57191    0.38198    0.32262    1.000
    N3475    N        0.53843    0.36905    0.35249    1.000
    N3476    N        0.60618    0.36981    0.34684    1.000
    Si3477   Si       0.49937    0.37549    0.32266    1.000
    N3478    N        0.50674    0.41818    0.31355    1.000
    N3479    N        0.69615    0.40641    0.31771    1.000
    Si3480   Si       0.64623    0.37489    0.36390    1.000
    N3481    N        0.64656    0.37566    0.27459    1.000
    Si3482   Si       0.68469    0.37015    0.29758    1.000
    Si3483   Si       0.73660    0.41122    0.33511    1.000
    N3484    N        0.65306    0.41722    0.37029    1.000
    Si3485   Si       0.53374    0.39748    0.38602    1.000
    N3486    N        0.56297    0.39682    0.47356    1.000
    N3487    N        0.57353    0.39242    0.40378    1.000
    N3488    N        0.50565    0.40466    0.41851    1.000
    N3489    N        0.49645    0.37413    0.47699    1.000
    Si3490   Si       0.57937    0.41722    0.43839    1.000
    Si3491   Si       0.52408    0.40326    0.49232    1.000
    Si3492   Si       0.64975    0.40187    0.46473    1.000
    N3493    N        0.62542    0.37240    0.48909    1.000
    Si3494   Si       0.72513    0.40854    0.44665    1.000
    N3495    N        0.68334    0.41384    0.43580    1.000
    N3496    N        0.54077    0.38798    0.53050    1.000
    N3497    N        0.56369    0.39995    0.60209    1.000
    Si3498   Si       0.56622    0.41150    0.56037    1.000
    Si3499   Si       0.58195    0.37622    0.50728    1.000
    N3500    N        0.60083    0.39903    0.54025    1.000
    N3501    N        0.66474    0.38242    0.56442    1.000
    Si3502   Si       0.70434    0.40185    0.56604    1.000
    N3503    N        0.72093    0.40041    0.60544    1.000
    Si3504   Si       0.64075    0.39280    0.52900    1.000
    N3505    N        0.73425    0.38362    0.53942    1.000
    N3506    N        0.73225    0.36349    0.71964    1.000
    Si3507   Si       0.53919    0.37163    0.62287    1.000
    N3508    N        0.50040    0.39250    0.62727    1.000
    Si3509   Si       0.58998    0.40363    0.63944    1.000
    N3510    N        0.50866    0.38858    0.70833    1.000
    N3511    N        0.56806    0.36853    0.65520    1.000
    N3512    N        0.60840    0.41435    0.68122    1.000
    Si3513   Si       0.53268    0.39645    0.74152    1.000
    N3514    N        0.63039    0.39140    0.62740    1.000
    Si3515   Si       0.65043    0.40978    0.66448    1.000
    N3516    N        0.69066    0.39506    0.66502    1.000
    Si3517   Si       0.71979    0.42133    0.64444    1.000
    Si3518   Si       0.64922    0.36159    0.60077    1.000
    N3519    N        0.50605    0.39017    0.77537    1.000
    Si3520   Si       0.59078    0.39827    0.83996    1.000
    N3521    N        0.55619    0.40642    0.81610    1.000
    Si3522   Si       0.53933    0.37090    0.79721    1.000
    N3523    N        0.56077    0.36554    0.75901    1.000
    Si3524   Si       0.60383    0.37038    0.74876    1.000
    N3525    N        0.61738    0.41292    0.75008    1.000
    N3526    N        0.71723    0.38021    0.85174    1.000
    N3527    N        0.68596    0.40144    0.77852    1.000
    Si3528   Si       0.71783    0.40061    0.81444    1.000
    Si3529   Si       0.64328    0.40566    0.78543    1.000
    Si3530   Si       0.71905    0.39227    0.75102    1.000
    N3531    N        0.62561    0.41561    0.82276    1.000
    N3532    N        0.72425    0.37723    0.99342    1.000
    Si3533   Si       0.56787    0.39125    0.90862    1.000
    Si3534   Si       0.52129    0.38832    0.96129    1.000
    N3535    N        0.60407    0.37710    0.92984    1.000
    N3536    N        0.54781    0.41683    0.93703    1.000
    N3537    N        0.49345    0.37368    0.93177    1.000
    N3538    N        0.49784    0.41387    0.99042    1.000
    N3539    N        0.59038    0.41730    0.88092    1.000
    N3540    N        0.65445    0.37727    0.88694    1.000
    N3541    N        0.67269    0.40728    0.97559    1.000
    N3542    N        0.71290    0.38462    0.92330    1.000
    Si3543   Si       0.62650    0.40566    0.90582    1.000
    Si3544   Si       0.72923    0.40416    0.88761    1.000
    Si3545   Si       0.71330    0.40453    0.96093    1.000
    N3546    N        0.63297    0.35970    0.78082    1.000
    N3547    N        0.61229    0.36929    0.99567    1.000
    N3548    N        0.52109    0.45991    0.04591    1.000
    Si3549   Si       0.58210    0.45194    0.00519    1.000
    N3550    N        0.58964    0.46815    0.04627    1.000
    Si3551   Si       0.52109    0.41887    0.02755    1.000
    Si3552   Si       0.61925    0.45909    0.07671    1.000
    N3553    N        0.65855    0.45939    0.05863    1.000
    N3554    N        0.72745    0.46872    0.03419    1.000
    N3555    N        0.71819    0.47667    0.11658    1.000
    Si3556   Si       0.62886    0.46532    0.15500    1.000
    N3557    N        0.55609    0.45642    0.21320    1.000
    Si3558   Si       0.52354    0.45649    0.18574    1.000
    N3559    N        0.60281    0.43092    0.16058    1.000
    Si3560   Si       0.58687    0.42692    0.20141    1.000
    Si3561   Si       0.68579    0.44903    0.20757    1.000
    N3562    N        0.66824    0.45027    0.16612    1.000
    N3563    N        0.61890    0.42427    0.22947    1.000
    N3564    N        0.66076    0.47571    0.23366    1.000
    N3565    N        0.73397    0.42542    0.15860    1.000
    N3566    N        0.72680    0.46414    0.21288    1.000
    Si3567   Si       0.69883    0.44172    0.13638    1.000
    Si3568   Si       0.53755    0.44587    0.33137    1.000
    Si3569   Si       0.59565    0.46249    0.30655    1.000
    N3570    N        0.57456    0.42534    0.31992    1.000
    N3571    N        0.59081    0.47849    0.26596    1.000
    Si3572   Si       0.62824    0.45619    0.25517    1.000
    Si3573   Si       0.66420    0.43616    0.32950    1.000
    N3574    N        0.63662    0.44498    0.29691    1.000
    N3575    N        0.67947    0.47531    0.33878    1.000
    N3576    N        0.50117    0.48027    0.43093    1.000
    N3577    N        0.52731    0.43896    0.37095    1.000
    Si3578   Si       0.53033    0.47491    0.46362    1.000
    Si3579   Si       0.50029    0.44590    0.40442    1.000
    N3580    N        0.56224    0.45778    0.43885    1.000
    Si3581   Si       0.72187    0.47883    0.34977    1.000
    Si3582   Si       0.65676    0.43352    0.40949    1.000
    N3583    N        0.67012    0.47535    0.40978    1.000
    N3584    N        0.62276    0.42249    0.43774    1.000
    Si3585   Si       0.51799    0.46146    0.53600    1.000
    N3586    N        0.54845    0.45122    0.56393    1.000
    Si3587   Si       0.55960    0.46333    0.60309    1.000
    N3588    N        0.69863    0.44274    0.55163    1.000
    Si3589   Si       0.68262    0.45685    0.51407    1.000
    N3590    N        0.66352    0.42010    0.50233    1.000
    N3591    N        0.72542    0.43497    0.73949    1.000
    Si3592   Si       0.49338    0.43309    0.63643    1.000
    N3593    N        0.52376    0.46412    0.62743    1.000
    N3594    N        0.55526    0.43730    0.73634    1.000
    N3595    N        0.58896    0.44809    0.63195    1.000
    Si3596   Si       0.59643    0.43464    0.72022    1.000
    N3597    N        0.60708    0.47418    0.70660    1.000
    N3598    N        0.65767    0.45107    0.66350    1.000
    Si3599   Si       0.61528    0.46443    0.66269    1.000
    N3600    N        0.71606    0.46405    0.63300    1.000
    Si3601   Si       0.68430    0.48006    0.57050    1.000
    N3602    N        0.52016    0.44641    0.49641    1.000
    Si3603   Si       0.53191    0.44247    0.82171    1.000
    N3604    N        0.53523    0.45213    0.86425    1.000
    N3605    N        0.54410    0.47346    0.79459    1.000
    N3606    N        0.59291    0.47682    0.84004    1.000
    N3607    N        0.71171    0.44311    0.88175    1.000
    N3608    N        0.65479    0.45696    0.78709    1.000
    N3609    N        0.71915    0.44444    0.81441    1.000
    Si3610   Si       0.63207    0.45966    0.82765    1.000
    Si3611   Si       0.70167    0.44833    0.77580    1.000
    Si3612   Si       0.72904    0.46818    0.84959    1.000
    N3613    N        0.65628    0.47463    0.86125    1.000
    N3614    N        0.56220    0.47875    0.97569    1.000
    Si3615   Si       0.49684    0.46442    0.88207    1.000
    Si3616   Si       0.57610    0.45734    0.87663    1.000
    Si3617   Si       0.54456    0.45914    0.93878    1.000
    N3618    N        0.50511    0.47281    0.92537    1.000
    N3619    N        0.62013    0.43813    0.99204    1.000
    N3620    N        0.64652    0.43997    0.92280    1.000
    Si3621   Si       0.65213    0.44706    0.96560    1.000
    Si3622   Si       0.67384    0.46014    0.89660    1.000
    N3623    N        0.72840    0.44506    0.95304    1.000
    Si3624   Si       0.54546    0.47808    0.75260    1.000
    N3625    N        0.55671    0.50505    0.09128    1.000
    Si3626   Si       0.55255    0.49296    0.05199    1.000
    Si3627   Si       0.59608    0.51620    0.10910    1.000
    N3628    N        0.54418    0.52364    0.02441    1.000
    N3629    N        0.49616    0.53003    0.11306    1.000
    N3630    N        0.67118    0.52160    0.03133    1.000
    Si3631   Si       0.72466    0.52244    0.11130    1.000
    N3632    N        0.62025    0.47955    0.11598    1.000
    Si3633   Si       0.68538    0.48060    0.02966    1.000
    N3634    N        0.52007    0.48591    0.15432    1.000
    Si3635   Si       0.53648    0.51662    0.12893    1.000
    Si3636   Si       0.58656    0.52400    0.18739    1.000
    N3637    N        0.55700    0.52453    0.22101    1.000
    N3638    N        0.57516    0.53274    0.14399    1.000
    Si3639   Si       0.55499    0.48741    0.24421    1.000
    N3640    N        0.69316    0.51805    0.19170    1.000
    N3641    N        0.62094    0.49855    0.18418    1.000
    Si3642   Si       0.72662    0.50623    0.21883    1.000
    Si3643   Si       0.65490    0.50988    0.20937    1.000
    Si3644   Si       0.51493    0.50334    0.30361    1.000
    Si3645   Si       0.57775    0.51038    0.35019    1.000
    N3646    N        0.51536    0.48837    0.26277    1.000
    N3647    N        0.61278    0.48708    0.34091    1.000
    N3648    N        0.55101    0.48705    0.32260    1.000
    Si3649   Si       0.70746    0.49577    0.42022    1.000
    Si3650   Si       0.65069    0.50612    0.34181    1.000
    N3651    N        0.71092    0.52016    0.25857    1.000
    N3652    N        0.64736    0.52747    0.30417    1.000
    N3653    N        0.56924    0.51683    0.39071    1.000
    Si3654   Si       0.57502    0.50022    0.42989    1.000
    N3655    N        0.54844    0.51588    0.46104    1.000
    Si3656   Si       0.61880    0.53675    0.47447    1.000
    N3657    N        0.72425    0.50733    0.38077    1.000
    N3658    N        0.68236    0.52727    0.43954    1.000
    Si3659   Si       0.64965    0.51367    0.41565    1.000
    N3660    N        0.61488    0.51229    0.43878    1.000
    Si3661   Si       0.69139    0.52634    0.48324    1.000
    N3662    N        0.70174    0.48414    0.48411    1.000
    N3663    N        0.64937    0.53367    0.37792    1.000
    N3664    N        0.52538    0.50735    0.53008    1.000
    N3665    N        0.57938    0.50180    0.59413    1.000
    N3666    N        0.59922    0.52316    0.51139    1.000
    Si3667   Si       0.55892    0.53430    0.52368    1.000
    N3668    N        0.52004    0.53335    0.61158    1.000
    N3669    N        0.74165    0.48781    0.70282    1.000
    Si3670   Si       0.62050    0.51145    0.60539    1.000
    Si3671   Si       0.63809    0.52637    0.53494    1.000
    N3672    N        0.66111    0.49117    0.53615    1.000
    N3673    N        0.72016    0.50289    0.57615    1.000
    N3674    N        0.65750    0.48429    0.60292    1.000
    Si3675   Si       0.73507    0.51965    0.53955    1.000
    Si3676   Si       0.51631    0.50524    0.64520    1.000
    N3677    N        0.54775    0.51652    0.67477    1.000
    N3678    N        0.50777    0.49737    0.73385    1.000
    Si3679   Si       0.60832    0.51089    0.72768    1.000
    Si3680   Si       0.53017    0.53027    0.71307    1.000
    Si3681   Si       0.58740    0.53173    0.66601    1.000
    N3682    N        0.56668    0.51500    0.74252    1.000
    Si3683   Si       0.73852    0.50149    0.74336    1.000
    Si3684   Si       0.73422    0.51516    0.67070    1.000
    Si3685   Si       0.67624    0.48237    0.64179    1.000
    N3686    N        0.68886    0.51734    0.66402    1.000
    N3687    N        0.62075    0.50713    0.64897    1.000
    Si3688   Si       0.56579    0.50328    0.81912    1.000
    N3689    N        0.54347    0.53271    0.84334    1.000
    N3690    N        0.59024    0.53432    0.80115    1.000
    Si3691   Si       0.50068    0.53687    0.85385    1.000
    N3692    N        0.63936    0.52536    0.75390    1.000
    N3693    N        0.65457    0.51911    0.81548    1.000
    Si3694   Si       0.67126    0.51387    0.85504    1.000
    Si3695   Si       0.66283    0.49871    0.77699    1.000
    N3696    N        0.71499    0.51123    0.85501    1.000
    N3697    N        0.70405    0.49136    0.76639    1.000
    Si3698   Si       0.58826    0.50512    0.94777    1.000
    Si3699   Si       0.53636    0.51518    0.98215    1.000
    N3700    N        0.49171    0.51191    0.97996    1.000
    N3701    N        0.56152    0.53726    0.95332    1.000
    Si3702   Si       0.66281    0.53173    0.92751    1.000
    Si3703   Si       0.65311    0.53156    0.99019    1.000
    N3704    N        0.62980    0.51687    0.95446    1.000
    N3705    N        0.68575    0.49458    0.92056    1.000
    Si3706   Si       0.70834    0.48288    0.95574    1.000
    N3707    N        0.67653    0.47715    0.98524    1.000
    N3708    N        0.57622    0.47911    0.91370    1.000
    Si3709   Si       0.53957    0.56755    0.02849    1.000
    N3710    N        0.51396    0.57518    0.06257    1.000
    N3711    N        0.68406    0.54520    0.12699    1.000
    N3712    N        0.69508    0.58755    0.18700    1.000
    Si3713   Si       0.64462    0.55229    0.05000    1.000
    N3714    N        0.62786    0.56041    0.01027    1.000
    Si3715   Si       0.65179    0.57081    0.11203    1.000
    N3716    N        0.66687    0.58815    0.07285    1.000
    N3717    N        0.72752    0.55215    0.07800    1.000
    N3718    N        0.62176    0.54435    0.08872    1.000
    Si3719   Si       0.71072    0.59166    0.08292    1.000
    Si3720   Si       0.49619    0.58904    0.18157    1.000
    N3721    N        0.53788    0.58054    0.17775    1.000
    Si3722   Si       0.53746    0.56294    0.21958    1.000
    Si3723   Si       0.57458    0.57639    0.15705    1.000
    N3724    N        0.59895    0.56579    0.19412    1.000
    N3725    N        0.49366    0.55870    0.21254    1.000
    N3726    N        0.54731    0.59623    0.24353    1.000
    N3727    N        0.64647    0.54393    0.23547    1.000
    Si3728   Si       0.70413    0.55221    0.16640    1.000
    Si3729   Si       0.61750    0.57455    0.23119    1.000
    N3730    N        0.74203    0.54265    0.14769    1.000
    N3731    N        0.57420    0.59149    0.03544    1.000
    Si3732   Si       0.60443    0.59541    0.00510    1.000
    Si3733   Si       0.54132    0.57013    0.32915    1.000
    N3734    N        0.57904    0.54761    0.33053    1.000
    N3735    N        0.51245    0.54653    0.30704    1.000
    N3736    N        0.60421    0.57637    0.27263    1.000
    Si3737   Si       0.61737    0.55927    0.30910    1.000
    N3738    N        0.68808    0.57892    0.28588    1.000
    N3739    N        0.63802    0.58855    0.33596    1.000
    Si3740   Si       0.72901    0.58724    0.28071    1.000
    Si3741   Si       0.67293    0.54040    0.26944    1.000
    N3742    N        0.52844    0.57120    0.37087    1.000
    Si3743   Si       0.56164    0.55965    0.39423    1.000
    N3744    N        0.60075    0.57839    0.39541    1.000
    N3745    N        0.55193    0.57814    0.43324    1.000
    Si3746   Si       0.53028    0.55658    0.46377    1.000
    N3747    N        0.49039    0.54904    0.44952    1.000
    N3748    N        0.61080    0.57867    0.46523    1.000
    N3749    N        0.73143    0.57751    0.38004    1.000
    Si3750   Si       0.63888    0.57529    0.37600    1.000
    N3751    N        0.72551    0.59958    0.44589    1.000
    Si3752   Si       0.59142    0.59803    0.43276    1.000
    Si3753   Si       0.64171    0.58860    0.49665    1.000
    N3754    N        0.56693    0.56129    0.55997    1.000
    N3755    N        0.53548    0.56743    0.50557    1.000
    Si3756   Si       0.60618    0.57861    0.56797    1.000
    Si3757   Si       0.53867    0.59014    0.54399    1.000
    N3758    N        0.73591    0.54526    0.74438    1.000
    N3759    N        0.72144    0.54491    0.50494    1.000
    N3760    N        0.65522    0.54712    0.49821    1.000
    N3761    N        0.62990    0.54314    0.57434    1.000
    Si3762   Si       0.65680    0.54745    0.67447    1.000
    Si3763   Si       0.55956    0.54050    0.59674    1.000
    Si3764   Si       0.49797    0.59096    0.71424    1.000
    N3765    N        0.57984    0.55744    0.63157    1.000
    N3766    N        0.54628    0.57068    0.72555    1.000
    Si3767   Si       0.60247    0.59366    0.64057    1.000
    N3768    N        0.49444    0.55292    0.69338    1.000
    N3769    N        0.61612    0.54276    0.69808    1.000
    Si3770   Si       0.72431    0.57132    0.71095    1.000
    N3771    N        0.71477    0.59359    0.64143    1.000
    Si3772   Si       0.64353    0.56966    0.73437    1.000
    N3773    N        0.64487    0.58076    0.64875    1.000
    N3774    N        0.67961    0.56439    0.70722    1.000
    Si3775   Si       0.57178    0.56636    0.83092    1.000
    Si3776   Si       0.56844    0.55614    0.76303    1.000
    Si3777   Si       0.50451    0.58437    0.79678    1.000
    N3778    N        0.54782    0.57910    0.79434    1.000
    N3779    N        0.60410    0.58013    0.75975    1.000
    N3780    N        0.61882    0.57822    0.83388    1.000
    N3781    N        0.66380    0.57725    0.77564    1.000
    Si3782   Si       0.63066    0.55268    0.79711    1.000
    N3783    N        0.72713    0.58723    0.85697    1.000
    N3784    N        0.53845    0.59436    0.91773    1.000
    Si3785   Si       0.55348    0.57959    0.95434    1.000
    N3786    N        0.52684    0.58362    0.98818    1.000
    N3787    N        0.60508    0.58372    0.89978    1.000
    N3788    N        0.65746    0.54383    0.88746    1.000
    N3789    N        0.68247    0.55349    0.96431    1.000
    Si3790   Si       0.70926    0.58711    0.97181    1.000
    Si3791   Si       0.63919    0.58033    0.87428    1.000
    N3792    N        0.71380    0.60121    0.92968    1.000
    Si3793   Si       0.49701    0.59814    0.90849    1.000
    Si3794   Si       0.57717    0.63002    0.05689    1.000
    N3795    N        0.54080    0.63565    0.07842    1.000
    Si3796   Si       0.50312    0.61531    0.07250    1.000
    N3797    N        0.49373    0.61852    0.11577    1.000
    N3798    N        0.61148    0.63316    0.08277    1.000
    Si3799   Si       0.64770    0.62703    0.06008    1.000
    N3800    N        0.62541    0.62937    0.02124    1.000
    Si3801   Si       0.70972    0.64412    0.03067    1.000
    N3802    N        0.73103    0.61136    0.05007    1.000
    N3803    N        0.71109    0.61755    0.11831    1.000
    Si3804   Si       0.53606    0.63262    0.12107    1.000
    Si3805   Si       0.60878    0.62978    0.12541    1.000
    N3806    N        0.56998    0.60873    0.13232    1.000
    Si3807   Si       0.53443    0.63454    0.22755    1.000
    N3808    N        0.49858    0.62742    0.20277    1.000
    Si3809   Si       0.60490    0.64899    0.22376    1.000
    N3810    N        0.56686    0.65141    0.20298    1.000
    Si3811   Si       0.71866    0.61441    0.21221    1.000
    N3812    N        0.63138    0.61483    0.21547    1.000
    Si3813   Si       0.65821    0.60977    0.17960    1.000
    N3814    N        0.63738    0.59968    0.14076    1.000
    Si3815   Si       0.71439    0.64556    0.14905    1.000
    N3816    N        0.69816    0.64320    0.23952    1.000
    N3817    N        0.67456    0.65064    0.17335    1.000
    N3818    N        0.55156    0.61024    0.31384    1.000
    Si3819   Si       0.57319    0.60792    0.27609    1.000
    Si3820   Si       0.54499    0.64578    0.33729    1.000
    N3821    N        0.59231    0.64330    0.26429    1.000
    Si3822   Si       0.67140    0.60774    0.31479    1.000
    N3823    N        0.67954    0.64982    0.31352    1.000
    N3824    N        0.63203    0.65711    0.36638    1.000
    N3825    N        0.60798    0.63894    0.42704    1.000
    N3826    N        0.56060    0.65347    0.37759    1.000
    N3827    N        0.60219    0.65361    0.49461    1.000
    Si3828   Si       0.70831    0.60301    0.40499    1.000
    N3829    N        0.72291    0.64432    0.40022    1.000
    Si3830   Si       0.70586    0.62524    0.47607    1.000
    N3831    N        0.66236    0.62167    0.47959    1.000
    N3832    N        0.66548    0.60032    0.39767    1.000
    Si3833   Si       0.64478    0.63760    0.40270    1.000
    Si3834   Si       0.63283    0.65413    0.46152    1.000
    N3835    N        0.56338    0.62704    0.54117    1.000
    Si3836   Si       0.60516    0.63877    0.53491    1.000
    N3837    N        0.49519    0.64658    0.53708    1.000
    N3838    N        0.60624    0.60907    0.59940    1.000
    N3839    N        0.72260    0.61401    0.51686    1.000
    N3840    N        0.67055    0.63700    0.61275    1.000
    Si3841   Si       0.62842    0.64427    0.59639    1.000
    Si3842   Si       0.70596    0.65277    0.59367    1.000
    N3843    N        0.51973    0.62532    0.69732    1.000
    Si3844   Si       0.55839    0.61034    0.70805    1.000
    N3845    N        0.57408    0.63803    0.73861    1.000
    N3846    N        0.58326    0.61269    0.67319    1.000
    Si3847   Si       0.67659    0.61015    0.64690    1.000
    N3848    N        0.67662    0.64622    0.67502    1.000
    N3849    N        0.64069    0.61314    0.72255    1.000
    Si3850   Si       0.66777    0.64593    0.71654    1.000
    N3851    N        0.62299    0.59858    0.53335    1.000
    Si3852   Si       0.72570    0.65748    0.52646    1.000
    N3853    N        0.50823    0.59647    0.57455    1.000
    N3854    N        0.69686    0.64190    0.75094    1.000
    Si3855   Si       0.53967    0.63480    0.82726    1.000
    N3856    N        0.49949    0.62618    0.80946    1.000
    N3857    N        0.55767    0.60331    0.85110    1.000
    Si3858   Si       0.61084    0.62346    0.75267    1.000
    N3859    N        0.69317    0.62573    0.81550    1.000
    Si3860   Si       0.67369    0.61813    0.77980    1.000
    N3861    N        0.63776    0.64484    0.77944    1.000
    Si3862   Si       0.67031    0.64481    0.84836    1.000
    Si3863   Si       0.73344    0.61625    0.82557    1.000
    Si3864   Si       0.68002    0.62485    0.91966    1.000
    N3865    N        0.70461    0.62752    0.99074    1.000
    N3866    N        0.58452    0.60797    0.96743    1.000
    Si3867   Si       0.60340    0.64149    0.94431    1.000
    Si3868   Si       0.57231    0.60867    0.89233    1.000
    N3869    N        0.58838    0.64997    0.90109    1.000
    N3870    N        0.66507    0.61494    0.88089    1.000
    N3871    N        0.64400    0.62844    0.94429    1.000
    Si3872   Si       0.54550    0.69839    0.03668    1.000
    N3873    N        0.50434    0.69153    0.02623    1.000
    N3874    N        0.57137    0.66435    0.02994    1.000
    Si3875   Si       0.60871    0.66823    0.00988    1.000
    Si3876   Si       0.64140    0.67936    0.17173    1.000
    Si3877   Si       0.66092    0.69776    0.05736    1.000
    N3878    N        0.63706    0.69862    0.02103    1.000
    N3879    N        0.63498    0.71284    0.08826    1.000
    N3880    N        0.67608    0.65682    0.05394    1.000
    Si3881   Si       0.67300    0.67991    0.23088    1.000
    Si3882   Si       0.72196    0.71221    0.02245    1.000
    Si3883   Si       0.57064    0.67777    0.16863    1.000
    Si3884   Si       0.49896    0.68884    0.15390    1.000
    N3885    N        0.53542    0.66757    0.14661    1.000
    N3886    N        0.60716    0.66410    0.15001    1.000
    N3887    N        0.51118    0.71036    0.19348    1.000
    N3888    N        0.56806    0.70734    0.24687    1.000
    N3889    N        0.72916    0.68731    0.14508    1.000
    N3890    N        0.69777    0.70975    0.21127    1.000
    N3891    N        0.63052    0.68468    0.21600    1.000
    N3892    N        0.57091    0.67639    0.31923    1.000
    Si3893   Si       0.56370    0.67768    0.27776    1.000
    Si3894   Si       0.60308    0.68607    0.34632    1.000
    Si3895   Si       0.49247    0.70013    0.34285    1.000
    Si3896   Si       0.73218    0.70682    0.47368    1.000
    N3897    N        0.52620    0.66021    0.26075    1.000
    N3898    N        0.50295    0.65727    0.34552    1.000
    N3899    N        0.66472    0.66387    0.43146    1.000
    Si3900   Si       0.70850    0.66129    0.28004    1.000
    Si3901   Si       0.66285    0.67765    0.34163    1.000
    N3902    N        0.63539    0.70511    0.32589    1.000
    N3903    N        0.67516    0.69649    0.27090    1.000
    N3904    N        0.68960    0.69605    0.36888    1.000
    Si3905   Si       0.69761    0.68049    0.40902    1.000
    N3906    N        0.49133    0.66960    0.41838    1.000
    Si3907   Si       0.52718    0.67540    0.39407    1.000
    Si3908   Si       0.51110    0.68550    0.45490    1.000
    N3909    N        0.55150    0.68200    0.43274    1.000
    Si3910   Si       0.57367    0.68047    0.47335    1.000
    Si3911   Si       0.58873    0.67616    0.40962    1.000
    N3912    N        0.53380    0.67040    0.48936    1.000
    N3913    N        0.59139    0.71098    0.37980    1.000
    N3914    N        0.61052    0.69687    0.44865    1.000
    N3915    N        0.72625    0.70631    0.43039    1.000
    N3916    N        0.71727    0.66819    0.48648    1.000
    N3917    N        0.52206    0.71455    0.37179    1.000
    N3918    N        0.48918    0.70602    0.29931    1.000
    Si3919   Si       0.72605    0.71386    0.35617    1.000
    N3920    N        0.54467    0.69270    0.55901    1.000
    Si3921   Si       0.52628    0.69743    0.59889    1.000
    N3922    N        0.50051    0.66497    0.60655    1.000
    Si3923   Si       0.53671    0.65984    0.53105    1.000
    Si3924   Si       0.65911    0.69304    0.54500    1.000
    N3925    N        0.69393    0.66683    0.55463    1.000
    N3926    N        0.62732    0.66742    0.55894    1.000
    Si3927   Si       0.66753    0.67518    0.64350    1.000
    N3928    N        0.70617    0.68499    0.62223    1.000
    N3929    N        0.62076    0.67017    0.63002    1.000
    N3930    N        0.55557    0.69480    0.63113    1.000
    Si3931   Si       0.59539    0.70279    0.64172    1.000
    Si3932   Si       0.51864    0.66643    0.71011    1.000
    N3933    N        0.53818    0.70210    0.70097    1.000
    N3934    N        0.60253    0.71266    0.68498    1.000
    N3935    N        0.65586    0.68629    0.72833    1.000
    N3936    N        0.64922    0.71032    0.50611    1.000
    Si3937   Si       0.55895    0.66955    0.76555    1.000
    N3938    N        0.53087    0.66630    0.85768    1.000
    N3939    N        0.51743    0.66912    0.75455    1.000
    N3940    N        0.58045    0.70652    0.75615    1.000
    Si3941   Si       0.54986    0.69391    0.83022    1.000
    N3942    N        0.57179    0.66457    0.80547    1.000
    Si3943   Si       0.49418    0.70223    0.77130    1.000
    N3944    N        0.58351    0.71223    0.85305    1.000
    N3945    N        0.52103    0.71256    0.80236    1.000
    Si3946   Si       0.61671    0.67272    0.80616    1.000
    N3947    N        0.70668    0.69166    0.79049    1.000
    Si3948   Si       0.72078    0.68738    0.83200    1.000
    N3949    N        0.68893    0.68066    0.85920    1.000
    Si3950   Si       0.66887    0.67929    0.77184    1.000
    N3951    N        0.64214    0.70586    0.79437    1.000
    Si3952   Si       0.60619    0.68175    0.87573    1.000
    N3953    N        0.53569    0.70112    0.94731    1.000
    N3954    N        0.60125    0.67786    0.96745    1.000
    Si3955   Si       0.57189    0.71101    0.96703    1.000
    Si3956   Si       0.49943    0.71243    0.93089    1.000
    Si3957   Si       0.68093    0.69784    0.89895    1.000
    N3958    N        0.69451    0.69969    0.99115    1.000
    N3959    N        0.63599    0.70061    0.90128    1.000
    N3960    N        0.69446    0.66510    0.92464    1.000
    Si3961   Si       0.70954    0.66632    0.96541    1.000
    N3962    N        0.62847    0.65881    0.84460    1.000
    N3963    N        0.48653    0.70652    0.88755    1.000
    Si3964   Si       0.49004    0.66512    0.87366    1.000
    Si3965   Si       0.52424    0.74090    0.09423    1.000
    Si3966   Si       0.59603    0.75709    0.02072    1.000
    Si3967   Si       0.59291    0.72753    0.08782    1.000
    N3968    N        0.56751    0.72444    0.00884    1.000
    N3969    N        0.50083    0.75391    0.05845    1.000
    N3970    N        0.59001    0.76415    0.06242    1.000
    N3971    N        0.69480    0.72547    0.05301    1.000
    N3972    N        0.63890    0.76318    0.01220    1.000
    Si3973   Si       0.69402    0.76509    0.07140    1.000
    N3974    N        0.49852    0.71941    0.12282    1.000
    N3975    N        0.59857    0.74164    0.12912    1.000
    N3976    N        0.53619    0.76563    0.22739    1.000
    Si3977   Si       0.59927    0.75586    0.16910    1.000
    Si3978   Si       0.54548    0.72308    0.21373    1.000
    N3979    N        0.57854    0.71838    0.18522    1.000
    Si3980   Si       0.60768    0.72135    0.23059    1.000
    Si3981   Si       0.66907    0.75573    0.18321    1.000
    Si3982   Si       0.64283    0.73935    0.12385    1.000
    N3983    N        0.66117    0.71654    0.15699    1.000
    N3984    N        0.62492    0.75721    0.20771    1.000
    N3985    N        0.71070    0.75596    0.15995    1.000
    Si3986   Si       0.73407    0.71890    0.23202    1.000
    N3987    N        0.66233    0.77131    0.09853    1.000
    N3988    N        0.55313    0.71198    0.07756    1.000
    Si3989   Si       0.70408    0.71295    0.16666    1.000
    N3990    N        0.55589    0.76991    0.35050    1.000
    N3991    N        0.61813    0.74311    0.26947    1.000
    Si3992   Si       0.65165    0.72593    0.29082    1.000
    Si3993   Si       0.71989    0.75661    0.29702    1.000
    N3994    N        0.67793    0.76130    0.29725    1.000
    N3995    N        0.73105    0.72036    0.31570    1.000
    N3996    N        0.73870    0.75681    0.25623    1.000
    Si3997   Si       0.55698    0.73737    0.38072    1.000
    Si3998   Si       0.52099    0.76674    0.44444    1.000
    N3999    N        0.50421    0.72892    0.45547    1.000
    N4000    N        0.55572    0.75638    0.41992    1.000
    N4001    N        0.72911    0.75133    0.37614    1.000
    N4002    N        0.70994    0.74262    0.48512    1.000
    N4003    N        0.61561    0.76568    0.46782    1.000
    Si4004   Si       0.61443    0.72457    0.48227    1.000
    Si4005   Si       0.54830    0.72802    0.53101    1.000
    N4006    N        0.50464    0.73552    0.52326    1.000
    N4007    N        0.56462    0.76229    0.55542    1.000
    N4008    N        0.50420    0.73538    0.59603    1.000
    N4009    N        0.60383    0.73525    0.61304    1.000
    Si4010   Si       0.59337    0.76926    0.59071    1.000
    Si4011   Si       0.49067    0.75800    0.55791    1.000
    Si4012   Si       0.64327    0.71721    0.69895    1.000
    Si4013   Si       0.67848    0.74295    0.51385    1.000
    N4014    N        0.67706    0.73323    0.55642    1.000
    Si4015   Si       0.69848    0.75861    0.58378    1.000
    N4016    N        0.73580    0.74091    0.59821    1.000
    N4017    N        0.67128    0.76594    0.61670    1.000
    N4018    N        0.57196    0.76144    0.72964    1.000
    Si4019   Si       0.57270    0.71991    0.71521    1.000
    N4020    N        0.49269    0.75412    0.67100    1.000
    Si4021   Si       0.73709    0.76118    0.69677    1.000
    N4022    N        0.72508    0.73993    0.73463    1.000
    Si4023   Si       0.67741    0.75711    0.65958    1.000
    N4024    N        0.71864    0.74562    0.66214    1.000
    N4025    N        0.65486    0.76023    0.70035    1.000
    N4026    N        0.48548    0.73333    0.74178    1.000
    Si4027   Si       0.73145    0.71653    0.63302    1.000
    N4028    N        0.66275    0.71472    0.66059    1.000
    N4029    N        0.57618    0.71795    0.50005    1.000
    Si4030   Si       0.59157    0.74785    0.76736    1.000
    N4031    N        0.57137    0.75554    0.80417    1.000
    Si4032   Si       0.59026    0.75568    0.84156    1.000
    Si4033   Si       0.52736    0.75464    0.80793    1.000
    N4034    N        0.51899    0.75886    0.84998    1.000
    Si4035   Si       0.65371    0.75014    0.79876    1.000
    N4036    N        0.69660    0.76132    0.79389    1.000
    N4037    N        0.63146    0.76540    0.83325    1.000
    N4038    N        0.63060    0.76764    0.76460    1.000
    N4039    N        0.50060    0.75630    0.92345    1.000
    N4040    N        0.58975    0.74610    0.94673    1.000
    N4041    N        0.65885    0.73455    0.95242    1.000
    Si4042   Si       0.65802    0.72535    0.99450    1.000
    N4043    N        0.70717    0.73436    0.90347    1.000
    Si4044   Si       0.62537    0.73685    0.92446    1.000
    N4045    N        0.71585    0.77053    0.96187    1.000
    Si4046   Si       0.68425    0.76235    0.92751    1.000
    N4047    N        0.64710    0.76736    0.90181    1.000
    Si4048   Si       0.48991    0.74967    0.88145    1.000
    Si4049   Si       0.57648    0.79603    0.08803    1.000
    N4050    N        0.54127    0.77832    0.10793    1.000
    Si4051   Si       0.58635    0.82919    0.01912    1.000
    N4052    N        0.60896    0.81927    0.10321    1.000
    N4053    N        0.57985    0.79121    0.99819    1.000
    N4054    N        0.68756    0.79440    0.04083    1.000
    Si4055   Si       0.65431    0.80556    0.01460    1.000
    N4056    N        0.73205    0.77743    0.08894    1.000
    Si4057   Si       0.72163    0.79054    0.22961    1.000
    Si4058   Si       0.64200    0.79631    0.22200    1.000
    Si4059   Si       0.64580    0.80474    0.12342    1.000
    Si4060   Si       0.51108    0.80016    0.12804    1.000
    N4061    N        0.57844    0.79405    0.17430    1.000
    N4062    N        0.51221    0.80055    0.17334    1.000
    Si4063   Si       0.54581    0.79821    0.20227    1.000
    N4064    N        0.50046    0.81995    0.23811    1.000
    N4065    N        0.64066    0.77609    0.15534    1.000
    N4066    N        0.68219    0.78121    0.21746    1.000
    N4067    N        0.56826    0.83105    0.05880    1.000
    N4068    N        0.63540    0.83027    0.19616    1.000
    N4069    N        0.62624    0.83278    0.03390    1.000
    N4070    N        0.56632    0.79879    0.29010    1.000
    Si4071   Si       0.53416    0.79365    0.32114    1.000
    Si4072   Si       0.59329    0.79466    0.36050    1.000
    Si4073   Si       0.50514    0.77978    0.25293    1.000
    Si4074   Si       0.60657    0.78132    0.28775    1.000
    N4075    N        0.51533    0.82704    0.34330    1.000
    N4076    N        0.50475    0.77305    0.29595    1.000
    N4077    N        0.62078    0.78875    0.32839    1.000
    Si4078   Si       0.66596    0.79488    0.32435    1.000
    N4079    N        0.62954    0.80987    0.26052    1.000
    Si4080   Si       0.72086    0.79229    0.36459    1.000
    N4081    N        0.73054    0.79184    0.32230    1.000
    N4082    N        0.72072    0.82461    0.25791    1.000
    N4083    N        0.67961    0.79971    0.36653    1.000
    N4084    N        0.50298    0.79781    0.41686    1.000
    N4085    N        0.52283    0.79693    0.47658    1.000
    N4086    N        0.57368    0.81747    0.43864    1.000
    Si4087   Si       0.59104    0.77710    0.43315    1.000
    Si4088   Si       0.48687    0.81887    0.48313    1.000
    N4089    N        0.67465    0.79069    0.44251    1.000
    Si4090   Si       0.64662    0.79493    0.47536    1.000
    Si4091   Si       0.71328    0.78083    0.46157    1.000
    N4092    N        0.72783    0.80899    0.49133    1.000
    Si4093   Si       0.65544    0.80097    0.40299    1.000
    N4094    N        0.61398    0.78601    0.39691    1.000
    Si4095   Si       0.54805    0.80037    0.56886    1.000
    N4096    N        0.50607    0.79927    0.55910    1.000
    N4097    N        0.56064    0.79132    0.61051    1.000
    N4098    N        0.62259    0.79872    0.57972    1.000
    N4099    N        0.70652    0.79848    0.56578    1.000
    Si4100   Si       0.70011    0.81211    0.52472    1.000
    N4101    N        0.66854    0.78644    0.50970    1.000
    Si4102   Si       0.65081    0.80352    0.61517    1.000
    N4103    N        0.55561    0.79939    0.67907    1.000
    Si4104   Si       0.51315    0.79187    0.67938    1.000
    Si4105   Si       0.57537    0.81307    0.64367    1.000
    N4106    N        0.51189    0.80220    0.72394    1.000
    Si4107   Si       0.55679    0.79935    0.72332    1.000
    N4108    N        0.49600    0.82421    0.65741    1.000
    Si4109   Si       0.71756    0.82867    0.66282    1.000
    N4110    N        0.67768    0.81030    0.66340    1.000
    N4111    N        0.61869    0.81678    0.64158    1.000
    Si4112   Si       0.64729    0.78944    0.72986    1.000
    N4113    N        0.62521    0.82136    0.71199    1.000
    N4114    N        0.68665    0.80191    0.74080    1.000
    N4115    N        0.74063    0.80420    0.69123    1.000
    N4116    N        0.74021    0.83106    0.62523    1.000
    Si4117   Si       0.53502    0.79832    0.86004    1.000
    Si4118   Si       0.49593    0.82318    0.80355    1.000
    N4119    N        0.53586    0.82261    0.82435    1.000
    N4120    N        0.50085    0.78234    0.78859    1.000
    N4121    N        0.57099    0.83024    0.75191    1.000
    N4122    N        0.57816    0.78533    0.86961    1.000
    N4123    N        0.69240    0.79299    0.85782    1.000
    Si4124   Si       0.65024    0.78663    0.86464    1.000
    N4125    N        0.71163    0.82530    0.79675    1.000
    Si4126   Si       0.71481    0.78658    0.82235    1.000
    Si4127   Si       0.71716    0.77707    0.75710    1.000
    N4128    N        0.53806    0.81081    0.95165    1.000
    Si4129   Si       0.50278    0.79928    0.93236    1.000
    N4130    N        0.50649    0.81051    0.88997    1.000
    Si4131   Si       0.57732    0.78736    0.95523    1.000
    N4132    N        0.60308    0.81415    0.93286    1.000
    Si4133   Si       0.59347    0.82122    0.89189    1.000
    Si4134   Si       0.70658    0.82352    0.88479    1.000
    N4135    N        0.63412    0.82496    0.87864    1.000
    N4136    N        0.66183    0.81744    0.97368    1.000
    N4137    N        0.68932    0.80830    0.92106    1.000
    Si4138   Si       0.64675    0.82334    0.92945    1.000
    Si4139   Si       0.70390    0.81120    0.96173    1.000
    Si4140   Si       0.54177    0.85909    0.08189    1.000
    N4141    N        0.50866    0.87001    0.05837    1.000
    N4142    N        0.57627    0.88594    0.09241    1.000
    Si4143   Si       0.60929    0.85495    0.07385    1.000
    N4144    N        0.52328    0.84139    0.11704    1.000
    Si4145   Si       0.70248    0.85690    0.23776    1.000
    N4146    N        0.68808    0.85700    0.02363    1.000
    N4147    N        0.65264    0.87029    0.07990    1.000
    N4148    N        0.71873    0.84892    0.08698    1.000
    Si4149   Si       0.68399    0.86719    0.10824    1.000
    Si4150   Si       0.65388    0.88073    0.03792    1.000
    N4151    N        0.58398    0.87133    0.17015    1.000
    Si4152   Si       0.49764    0.87243    0.13764    1.000
    Si4153   Si       0.59326    0.83484    0.18824    1.000
    N4154    N        0.66786    0.83968    0.13551    1.000
    N4155    N        0.70773    0.84260    0.19562    1.000
    Si4156   Si       0.66848    0.85375    0.17718    1.000
    Si4157   Si       0.70978    0.83061    0.04898    1.000
    N4158    N        0.56749    0.83009    0.22498    1.000
    N4159    N        0.60958    0.89319    0.03910    1.000
    N4160    N        0.60234    0.85758    0.29249    1.000
    N4161    N        0.53757    0.86495    0.27742    1.000
    Si4162   Si       0.59702    0.86908    0.33403    1.000
    Si4163   Si       0.54179    0.85635    0.36392    1.000
    Si4164   Si       0.49709    0.85606    0.26384    1.000
    Si4165   Si       0.56889    0.83657    0.26925    1.000
    N4166    N        0.57902    0.83669    0.35788    1.000
    N4167    N        0.71442    0.87252    0.43141    1.000
    Si4168   Si       0.65633    0.87912    0.38935    1.000
    Si4169   Si       0.69652    0.87008    0.32478    1.000
    Si4170   Si       0.64278    0.84581    0.27771    1.000
    N4171    N        0.66979    0.83810    0.31215    1.000
    N4172    N        0.62795    0.88652    0.35791    1.000
    N4173    N        0.66289    0.87124    0.24981    1.000
    N4174    N        0.53601    0.86559    0.40800    1.000
    N4175    N        0.50426    0.85417    0.46105    1.000
    N4176    N        0.59348    0.88511    0.44568    1.000
    Si4177   Si       0.60943    0.84500    0.43944    1.000
    Si4178   Si       0.49169    0.87366    0.40673    1.000
    N4179    N        0.69394    0.87433    0.36845    1.000
    N4180    N        0.63335    0.83509    0.47383    1.000
    Si4181   Si       0.72725    0.86092    0.39173    1.000
    N4182    N        0.64187    0.84373    0.40798    1.000
    Si4183   Si       0.53064    0.82707    0.43573    1.000
    Si4184   Si       0.54801    0.87671    0.56109    1.000
    N4185    N        0.50550    0.86958    0.56727    1.000
    N4186    N        0.56736    0.83762    0.56133    1.000
    Si4187   Si       0.61161    0.83911    0.57048    1.000
    Si4188   Si       0.57939    0.88759    0.62149    1.000
    N4189    N        0.61245    0.87624    0.59552    1.000
    N4190    N        0.62547    0.86413    0.53692    1.000
    N4191    N        0.68833    0.85223    0.51758    1.000
    N4192    N        0.72907    0.87002    0.57074    1.000
    N4193    N        0.67050    0.83990    0.60478    1.000
    Si4194   Si       0.71976    0.88071    0.52957    1.000
    Si4195   Si       0.64955    0.86317    0.50282    1.000
    Si4196   Si       0.64995    0.87644    0.61855    1.000
    Si4197   Si       0.71172    0.83445    0.59233    1.000
    N4198    N        0.52964    0.87298    0.70312    1.000
    N4199    N        0.56010    0.85432    0.64243    1.000
    Si4200   Si       0.52066    0.85937    0.66132    1.000
    Si4201   Si       0.50650    0.84670    0.73038    1.000
    N4202    N        0.59593    0.88648    0.71580    1.000
    Si4203   Si       0.60968    0.85117    0.74167    1.000
    N4204    N        0.71536    0.87261    0.66970    1.000
    Si4205   Si       0.73326    0.87762    0.70738    1.000
    N4206    N        0.63857    0.87628    0.66047    1.000
    N4207    N        0.71049    0.86833    0.74282    1.000
    Si4208   Si       0.64340    0.83414    0.67487    1.000
    N4209    N        0.58179    0.86935    0.80137    1.000
    N4210    N        0.50937    0.84878    0.77221    1.000
    Si4211   Si       0.58921    0.87798    0.84308    1.000
    Si4212   Si       0.55348    0.84179    0.78925    1.000
    N4213    N        0.64676    0.85296    0.76880    1.000
    N4214    N        0.63195    0.87780    0.84024    1.000
    Si4215   Si       0.68752    0.83993    0.76320    1.000
    Si4216   Si       0.64854    0.88449    0.80024    1.000
    N4217    N        0.69543    0.86128    0.86593    1.000
    N4218    N        0.57697    0.85910    0.88067    1.000
    Si4219   Si       0.54066    0.85148    0.96741    1.000
    N4220    N        0.53664    0.88447    0.93852    1.000
    N4221    N        0.50578    0.86310    0.99073    1.000
    N4222    N        0.57665    0.85955    0.99157    1.000
    Si4223   Si       0.65335    0.86586    0.87780    1.000
    N4224    N        0.64978    0.86734    0.92147    1.000
    Si4225   Si       0.71110    0.87258    0.99017    1.000
    N4226    N        0.73345    0.84294    0.96563    1.000
    Si4227   Si       0.55245    0.89142    0.89933    1.000
    Si4228   Si       0.59137    0.92064    0.06856    1.000
    N4229    N        0.56198    0.94342    0.04457    1.000
    N4230    N        0.72834    0.89177    0.23544    1.000
    Si4231   Si       0.71753    0.92607    0.03719    1.000
    N4232    N        0.67510    0.92064    0.03689    1.000
    Si4233   Si       0.65529    0.94009    0.00301    1.000
    N4234    N        0.61640    0.94837    0.08932    1.000
    N4235    N        0.73863    0.89829    0.01256    1.000
    N4236    N        0.73040    0.92206    0.07832    1.000
    Si4237   Si       0.73730    0.90963    0.12023    1.000
    Si4238   Si       0.51535    0.93040    0.17807    1.000
    N4239    N        0.52768    0.90204    0.14389    1.000
    N4240    N        0.58589    0.93144    0.14982    1.000
    Si4241   Si       0.58262    0.91244    0.18977    1.000
    N4242    N        0.54379    0.92028    0.20804    1.000
    Si4243   Si       0.56924    0.89388    0.13482    1.000
    Si4244   Si       0.54247    0.94585    0.24273    1.000
    N4245    N        0.60954    0.92938    0.21957    1.000
    Si4246   Si       0.64541    0.90648    0.22936    1.000
    Si4247   Si       0.67933    0.92504    0.16567    1.000
    N4248    N        0.69833    0.90180    0.13486    1.000
    N4249    N        0.70851    0.94331    0.19427    1.000
    N4250    N        0.66079    0.89490    0.18887    1.000
    Si4251   Si       0.71129    0.93215    0.23705    1.000
    Si4252   Si       0.60016    0.89463    0.99384    1.000
    N4253    N        0.56264    0.93367    0.27914    1.000
    N4254    N        0.50262    0.92120    0.30042    1.000
    Si4255   Si       0.54146    0.90099    0.29944    1.000
    Si4256   Si       0.55901    0.92770    0.36308    1.000
    N4257    N        0.52024    0.94583    0.35649    1.000
    Si4258   Si       0.62768    0.92730    0.34684    1.000
    N4259    N        0.69870    0.91170    0.31203    1.000
    N4260    N        0.63110    0.93228    0.30288    1.000
    Si4261   Si       0.67104    0.94221    0.29396    1.000
    N4262    N        0.65689    0.90240    0.48362    1.000
    N4263    N        0.65743    0.91111    0.41881    1.000
    Si4264   Si       0.62463    0.91650    0.45468    1.000
    Si4265   Si       0.55332    0.89671    0.43593    1.000
    N4266    N        0.56408    0.93130    0.40707    1.000
    N4267    N        0.53719    0.91221    0.47331    1.000
    N4268    N        0.60405    0.94097    0.48758    1.000
    Si4269   Si       0.49506    0.89731    0.47012    1.000
    Si4270   Si       0.68718    0.90040    0.45068    1.000
    N4271    N        0.71589    0.93161    0.46010    1.000
    N4272    N        0.55895    0.89138    0.33849    1.000
    N4273    N        0.67126    0.93578    0.25143    1.000
    N4274    N        0.54810    0.90253    0.59463    1.000
    Si4275   Si       0.49816    0.90462    0.59912    1.000
    N4276    N        0.57198    0.90768    0.54036    1.000
    Si4277   Si       0.56522    0.93195    0.50163    1.000
    Si4278   Si       0.54899    0.94197    0.56846    1.000
    N4279    N        0.50658    0.94323    0.57516    1.000
    Si4280   Si       0.61214    0.90026    0.55773    1.000
    Si4281   Si       0.66593    0.93361    0.51470    1.000
    N4282    N        0.70365    0.92189    0.53142    1.000
    N4283    N        0.64275    0.93048    0.55771    1.000
    Si4284   Si       0.66056    0.94578    0.59443    1.000
    N4285    N        0.67465    0.91028    0.61500    1.000
    N4286    N        0.59062    0.92113    0.64493    1.000
    Si4287   Si       0.55603    0.90428    0.72097    1.000
    N4288    N        0.54880    0.94701    0.70131    1.000
    Si4289   Si       0.61245    0.90590    0.67984    1.000
    Si4290   Si       0.70363    0.91108    0.65077    1.000
    N4291    N        0.73908    0.92466    0.62958    1.000
    N4292    N        0.68634    0.94032    0.67730    1.000
    Si4293   Si       0.70557    0.94580    0.71495    1.000
    N4294    N        0.50138    0.89264    0.64044    1.000
    N4295    N        0.49488    0.94314    0.74505    1.000
    Si4296   Si       0.58556    0.91007    0.78986    1.000
    N4297    N        0.55410    0.91647    0.76291    1.000
    N4298    N        0.58096    0.92116    0.83297    1.000
    Si4299   Si       0.52140    0.94156    0.77867    1.000
    N4300    N        0.52333    0.90151    0.86971    1.000
    N4301    N        0.70300    0.90136    0.95968    1.000
    Si4302   Si       0.58077    0.95015    0.86594    1.000
    N4303    N        0.68941    0.89369    0.80571    1.000
    Si4304   Si       0.70167    0.90059    0.84698    1.000
    N4305    N        0.62772    0.92111    0.78469    1.000
    Si4306   Si       0.71187    0.90306    0.76988    1.000
    N4307    N        0.67565    0.92350    0.87105    1.000
    N4308    N        0.68687    0.93603    0.75337    1.000
    Si4309   Si       0.50241    0.89935    0.96321    1.000
    Si4310   Si       0.60103    0.94284    0.93444    1.000
    N4311    N        0.50669    0.93595    0.98220    1.000
    N4312    N        0.57800    0.92626    0.90277    1.000
    N4313    N        0.58624    0.93186    0.97622    1.000
    N4314    N        0.48797    0.93500    0.80747    1.000
    Si4315   Si       0.66092    0.90150    0.94488    1.000
    N4316    N        0.64289    0.90111    0.98397    1.000
    N4317    N        0.64125    0.93626    0.92383    1.000
    N4318    N        0.55307    0.98875    0.09370    1.000
    Si4319   Si       0.53114    0.96702    0.06364    1.000
    N4320    N        0.49987    0.98441    0.03723    1.000
    Si4321   Si       0.58334    0.95969    0.00959    1.000
    N4322    N        0.50581    0.95021    0.09480    1.000
    Si4323   Si       0.52104    0.97882    0.12406    1.000
    N4324    N        0.62405    0.96144    0.02262    1.000
    N4325    N        0.72122    0.96775    0.02498    1.000
    N4326    N        0.67917    0.99198    0.07185    1.000
    Si4327   Si       0.63794    0.97408    0.06330    1.000
    Si4328   Si       0.72309    0.98762    0.06415    1.000
    N4329    N        0.52506    0.97309    0.16795    1.000
    N4330    N        0.56624    0.98250    0.23216    1.000
    Si4331   Si       0.60942    0.97012    0.22923    1.000
    N4332    N        0.62157    0.00001    0.20014    1.000
    Si4333   Si       0.64451    0.99902    0.16351    1.000
    N4334    N        0.61162    0.99789    0.13465    1.000
    N4335    N        0.65261    0.95720    0.15510    1.000
    Si4336   Si       0.61742    0.95408    0.13111    1.000
    Si4337   Si       0.49181    0.00091    0.24004    1.000
    N4338    N        0.50277    0.95926    0.24594    1.000
    Si4339   Si       0.58194    0.99531    0.34774    1.000
    Si4340   Si       0.59533    0.95912    0.29734    1.000
    N4341    N        0.56941    0.99703    0.30602    1.000
    N4342    N        0.58909    0.95142    0.34241    1.000
    Si4343   Si       0.65627    0.95394    0.40753    1.000
    N4344    N        0.61941    0.98528    0.26801    1.000
    Si4345   Si       0.71343    0.99560    0.32783    1.000
    N4346    N        0.67517    0.98335    0.30640    1.000
    Si4347   Si       0.65507    0.99361    0.34410    1.000
    N4348    N        0.65220    0.95563    0.36566    1.000
    N4349    N        0.68457    0.98260    0.42300    1.000
    N4350    N        0.56279    0.99481    0.38747    1.000
    Si4351   Si       0.52257    0.98040    0.38171    1.000
    N4352    N        0.50988    0.97794    0.42297    1.000
    Si4353   Si       0.57722    0.96965    0.42160    1.000
    N4354    N        0.56722    0.99757    0.45227    1.000
    N4355    N        0.66471    0.96939    0.48833    1.000
    Si4356   Si       0.62480    0.97890    0.47349    1.000
    Si4357   Si       0.70142    0.97227    0.46174    1.000
    N4358    N        0.62199    0.96041    0.43264    1.000
    N4359    N        0.72569    0.00597    0.47160    1.000
    N4360    N        0.73769    0.94643    0.27053    1.000
    N4361    N        0.57511    0.97140    0.58915    1.000
    N4362    N        0.54630    0.96281    0.52724    1.000
    Si4363   Si       0.53191    0.00559    0.52709    1.000
    N4364    N        0.68543    0.98173    0.58854    1.000
    N4365    N        0.72698    0.99296    0.53900    1.000
    Si4366   Si       0.65449    0.00543    0.60605    1.000
    Si4367   Si       0.72064    0.00392    0.58038    1.000
    Si4368   Si       0.73459    0.95073    0.53864    1.000
    Si4369   Si       0.59531    0.96086    0.62759    1.000
    Si4370   Si       0.58453    0.97237    0.69627    1.000
    N4371    N        0.58053    0.99154    0.65505    1.000
    Si4372   Si       0.50936    0.96067    0.70879    1.000
    N4373    N        0.50839    0.00525    0.72041    1.000
    N4374    N        0.71410    0.98748    0.72172    1.000
    N4375    N        0.65948    0.00568    0.68680    1.000
    N4376    N        0.63885    0.96858    0.62670    1.000
    Si4377   Si       0.65289    0.96722    0.66932    1.000
    N4378    N        0.62133    0.94742    0.69291    1.000
    N4379    N        0.52638    0.98526    0.78328    1.000
    N4380    N        0.55423    0.98151    0.85237    1.000
    N4381    N        0.59500    0.99768    0.79834    1.000
    Si4382   Si       0.55461    0.00086    0.81341    1.000
    Si4383   Si       0.49295    0.00210    0.76221    1.000
    N4384    N        0.73196    0.96221    0.95199    1.000
    N4385    N        0.61909    0.97115    0.86563    1.000
    Si4386   Si       0.62507    0.99420    0.82984    1.000
    N4387    N        0.66153    0.97377    0.81411    1.000
    Si4388   Si       0.69503    0.98461    0.83774    1.000
    N4389    N        0.73227    0.97245    0.81880    1.000
    Si4390   Si       0.65398    0.95508    0.77468    1.000
    N4391    N        0.64188    0.98955    0.74833    1.000
    Si4392   Si       0.52510    0.99278    0.88300    1.000
    N4393    N        0.60214    0.98580    0.94137    1.000
    N4394    N        0.53797    0.98015    0.92168    1.000
    N4395    N        0.55488    0.98854    0.99189    1.000
    Si4396   Si       0.56178    0.00031    0.94928    1.000
    Si4397   Si       0.51252    0.97535    0.99576    1.000
    N4398    N        0.66828    0.97292    0.97927    1.000
    Si4399   Si       0.63782    0.99892    0.96243    1.000
    Si4400   Si       0.65443    0.95640    0.88703    1.000
    Si4401   Si       0.70928    0.98416    0.98272    1.000
    N4402    N        0.67919    0.98968    0.87833    1.000
    N4403    N        0.78868    0.04397    0.07718    1.000
    N4404    N        0.84971    0.03203    0.09665    1.000
    Si4405   Si       0.74807    0.03994    0.01271    1.000
    N4406    N        0.78435    0.01293    0.01446    1.000
    Si4407   Si       0.81773    0.06398    0.09930    1.000
    N4408    N        0.94743    0.04909    0.23704    1.000
    Si4409   Si       0.90808    0.04676    0.02621    1.000
    N4410    N        0.94462    0.03565    0.05284    1.000
    Si4411   Si       0.93034    0.01893    0.08996    1.000
    N4412    N        0.88112    0.01520    0.02696    1.000
    Si4413   Si       0.97318    0.00952    0.02790    1.000
    N4414    N        0.92643    0.04286    0.12543    1.000
    N4415    N        0.85688    0.04760    0.16002    1.000
    Si4416   Si       0.77005    0.03222    0.16130    1.000
    N4417    N        0.79281    0.04915    0.19708    1.000
    Si4418   Si       0.78025    0.03797    0.23770    1.000
    Si4419   Si       0.84171    0.01419    0.13604    1.000
    Si4420   Si       0.94131    0.01248    0.21545    1.000
    Si4421   Si       0.90060    0.04846    0.16313    1.000
    N4422    N        0.90818    0.01392    0.18683    1.000
    Si4423   Si       0.97045    0.03812    0.12426    1.000
    Si4424   Si       0.81557    0.03609    0.33746    1.000
    N4425    N        0.81402    0.02530    0.26099    1.000
    N4426    N        0.84971    0.05194    0.31580    1.000
    Si4427   Si       0.84136    0.05744    0.27257    1.000
    N4428    N        0.74730    0.06316    0.25351    1.000
    Si4429   Si       0.74903    0.06350    0.29914    1.000
    N4430    N        0.78597    0.06182    0.32226    1.000
    Si4431   Si       0.89085    0.05444    0.32864    1.000
    N4432    N        0.96361    0.02989    0.34958    1.000
    N4433    N        0.91325    0.01825    0.30822    1.000
    N4434    N        0.87953    0.04697    0.25304    1.000
    Si4435   Si       0.89628    0.00878    0.26892    1.000
    Si4436   Si       0.98678    0.06484    0.24916    1.000
    N4437    N        0.89230    0.04214    0.36998    1.000
    N4438    N        0.77909    0.06049    0.44104    1.000
    N4439    N        0.82322    0.04021    0.37872    1.000
    Si4440   Si       0.85181    0.05211    0.47748    1.000
    N4441    N        0.85027    0.04484    0.43565    1.000
    Si4442   Si       0.77895    0.06653    0.48488    1.000
    Si4443   Si       0.75871    0.01686    0.44230    1.000
    Si4444   Si       0.86164    0.02705    0.39571    1.000
    N4445    N        0.81291    0.04428    0.49881    1.000
    Si4446   Si       0.93285    0.03668    0.38021    1.000
    N4447    N        0.96073    0.01865    0.48165    1.000
    N4448    N        0.88608    0.03006    0.49187    1.000
    Si4449   Si       0.81651    0.06544    0.41423    1.000
    Si4450   Si       0.81220    0.02945    0.54128    1.000
    Si4451   Si       0.77884    0.03106    0.60622    1.000
    N4452    N        0.78599    0.05273    0.56740    1.000
    Si4453   Si       0.85393    0.04429    0.59638    1.000
    N4454    N        0.85411    0.03548    0.55427    1.000
    N4455    N        0.74699    0.05570    0.51120    1.000
    N4456    N        0.82218    0.01973    0.61123    1.000
    N4457    N        0.94253    0.06210    0.65832    1.000
    Si4458   Si       0.88898    0.04285    0.53178    1.000
    N4459    N        0.96668    0.03760    0.59381    1.000
    N4460    N        0.92587    0.02022    0.53778    1.000
    N4461    N        0.89424    0.03697    0.61295    1.000
    Si4462   Si       0.98331    0.04607    0.50916    1.000
    N4463    N        0.75425    0.03854    0.70669    1.000
    N4464    N        0.77201    0.05365    0.64172    1.000
    Si4465   Si       0.78858    0.03905    0.67936    1.000
    Si4466   Si       0.85199    0.04505    0.72462    1.000
    N4467    N        0.81742    0.06170    0.70303    1.000
    Si4468   Si       0.92260    0.01991    0.73535    1.000
    Si4469   Si       0.96217    0.02684    0.66728    1.000
    N4470    N        0.89251    0.04220    0.70708    1.000
    N4471    N        0.95974    0.01945    0.71012    1.000
    N4472    N        0.78553    0.02417    0.82673    1.000
    N4473    N        0.74839    0.02760    0.76891    1.000
    Si4474   Si       0.74518    0.01708    0.80872    1.000
    N4475    N        0.84060    0.06288    0.83933    1.000
    Si4476   Si       0.79928    0.06626    0.82425    1.000
    Si4477   Si       0.84800    0.03366    0.87115    1.000
    N4478    N        0.93598    0.05731    0.75633    1.000
    Si4479   Si       0.89648    0.05750    0.77699    1.000
    N4480    N        0.89062    0.01651    0.77094    1.000
    N4481    N        0.88634    0.01478    0.87032    1.000
    Si4482   Si       0.85122    0.06121    0.94118    1.000
    N4483    N        0.84210    0.02715    0.96801    1.000
    N4484    N        0.76915    0.05223    0.96901    1.000
    Si4485   Si       0.79905    0.01787    0.97391    1.000
    N4486    N        0.83028    0.05916    0.90126    1.000
    Si4487   Si       0.93160    0.01873    0.96611    1.000
    N4488    N        0.92230    0.05554    0.98621    1.000
    N4489    N        0.94267    0.02022    0.92535    1.000
    Si4490   Si       0.92620    0.02497    0.88546    1.000
    N4491    N        0.83508    0.10070    0.08633    1.000
    N4492    N        0.75975    0.08059    0.02843    1.000
    Si4493   Si       0.74315    0.11771    0.01450    1.000
    N4494    N        0.74751    0.10090    0.09223    1.000
    Si4495   Si       0.85863    0.10794    0.05004    1.000
    N4496    N        0.89242    0.08277    0.04383    1.000
    N4497    N        0.94864    0.09626    0.08070    1.000
    Si4498   Si       0.97711    0.06829    0.05900    1.000
    Si4499   Si       0.91842    0.11553    0.05843    1.000
    Si4500   Si       0.97379    0.12067    0.11012    1.000
    N4501    N        0.82687    0.11231    0.19291    1.000
    Si4502   Si       0.76145    0.09572    0.13299    1.000
    N4503    N        0.80042    0.07617    0.13799    1.000
    Si4504   Si       0.80471    0.11988    0.22894    1.000
    N4505    N        0.76159    0.11909    0.21982    1.000
    Si4506   Si       0.82276    0.07287    0.17452    1.000
    N4507    N        0.98315    0.10600    0.23310    1.000
    Si4508   Si       0.91105    0.07126    0.23528    1.000
    Si4509   Si       0.91601    0.11770    0.17128    1.000
    N4510    N        0.90885    0.08008    0.19237    1.000
    Si4511   Si       0.75294    0.06585    0.06708    1.000
    N4512    N        0.87984    0.12425    0.14903    1.000
    Si4513   Si       0.77465    0.10076    0.34208    1.000
    N4514    N        0.82005    0.09291    0.25843    1.000
    N4515    N        0.91617    0.09051    0.32392    1.000
    Si4516   Si       0.95271    0.10366    0.34875    1.000
    N4517    N        0.91996    0.10948    0.25735    1.000
    Si4518   Si       0.90782    0.12259    0.29662    1.000
    N4519    N        0.82970    0.10990    0.41344    1.000
    N4520    N        0.76889    0.10034    0.38580    1.000
    Si4521   Si       0.74568    0.07496    0.41253    1.000
    N4522    N        0.78526    0.10748    0.49317    1.000
    N4523    N        0.85685    0.09510    0.48297    1.000
    Si4524   Si       0.82768    0.11974    0.50013    1.000
    N4525    N        0.89869    0.12295    0.42844    1.000
    Si4526   Si       0.93572    0.11610    0.41048    1.000
    N4527    N        0.93516    0.10274    0.48300    1.000
    N4528    N        0.94065    0.07846    0.39203    1.000
    Si4529   Si       0.89533    0.11533    0.47066    1.000
    Si4530   Si       0.97980    0.11005    0.47228    1.000
    N4531    N        0.98108    0.11972    0.42778    1.000
    N4532    N        0.85301    0.08915    0.59629    1.000
    N4533    N        0.74223    0.11258    0.54902    1.000
    N4534    N        0.76321    0.12274    0.61606    1.000
    Si4535   Si       0.74857    0.06995    0.55294    1.000
    Si4536   Si       0.86221    0.11035    0.55889    1.000
    N4537    N        0.89173    0.09800    0.65058    1.000
    Si4538   Si       0.96986    0.08009    0.57932    1.000
    N4539    N        0.89384    0.08650    0.53903    1.000
    N4540    N        0.93815    0.10255    0.59904    1.000
    Si4541   Si       0.93197    0.10269    0.52531    1.000
    N4542    N        0.96490    0.07585    0.53737    1.000
    Si4543   Si       0.75084    0.09170    0.64444    1.000
    Si4544   Si       0.80926    0.10407    0.69973    1.000
    N4545    N        0.76748    0.11427    0.67917    1.000
    Si4546   Si       0.85609    0.11626    0.63092    1.000
    N4547    N        0.82473    0.11319    0.65972    1.000
    N4548    N        0.74127    0.10043    0.74173    1.000
    N4549    N        0.82485    0.12497    0.73375    1.000
    Si4550   Si       0.91261    0.07791    0.68606    1.000
    N4551    N        0.93936    0.10276    0.71048    1.000
    Si4552   Si       0.91663    0.07340    0.62327    1.000
    Si4553   Si       0.83293    0.10135    0.77040    1.000
    N4554    N        0.79290    0.08710    0.78578    1.000
    N4555    N        0.78030    0.09293    0.85271    1.000
    Si4556   Si       0.76103    0.11537    0.77869    1.000
    N4557    N        0.84957    0.12298    0.80654    1.000
    N4558    N        0.86063    0.07147    0.75797    1.000
    Si4559   Si       0.86904    0.09567    0.83222    1.000
    N4560    N        0.90496    0.08167    0.81206    1.000
    Si4561   Si       0.94458    0.10067    0.81299    1.000
    N4562    N        0.97988    0.07896    0.83025    1.000
    N4563    N        0.95374    0.11935    0.77442    1.000
    Si4564   Si       0.97230    0.07672    0.87341    1.000
    N4565    N        0.77392    0.09651    0.91918    1.000
    N4566    N        0.82979    0.09229    0.96081    1.000
    Si4567   Si       0.78649    0.09125    0.95977    1.000
    Si4568   Si       0.80423    0.09323    0.88782    1.000
    Si4569   Si       0.74074    0.12301    0.92446    1.000
    N4570    N        0.77105    0.12417    0.98279    1.000
    N4571    N        0.87885    0.11404    0.87354    1.000
    Si4572   Si       0.92274    0.09270    0.96283    1.000
    N4573    N        0.89151    0.07738    0.93274    1.000
    N4574    N        0.97204    0.09231    0.96459    1.000
    N4575    N        0.93141    0.06795    0.87981    1.000
    Si4576   Si       0.90883    0.09918    0.89978    1.000
    Si4577   Si       0.97898    0.12235    0.93279    1.000
    N4578    N        0.93490    0.12437    0.92441    1.000
    N4579    N        0.89679    0.12424    0.98067    1.000
    Si4580   Si       0.74829    0.12733    0.84976    1.000
    Si4581   Si       0.85289    0.12431    0.97679    1.000
    Si4582   Si       0.96340    0.08793    0.74536    1.000
    Si4583   Si       0.84129    0.17259    0.00910    1.000
    N4584    N        0.74747    0.15005    0.04329    1.000
    N4585    N        0.84259    0.13055    0.01898    1.000
    Si4586   Si       0.85925    0.13061    0.10948    1.000
    N4587    N        0.93354    0.15003    0.19826    1.000
    N4588    N        0.93954    0.14152    0.02906    1.000
    Si4589   Si       0.97954    0.14430    0.04484    1.000
    N4590    N        0.88419    0.13776    0.07366    1.000
    N4591    N        0.97949    0.15792    0.08647    1.000
    Si4592   Si       0.91518    0.15945    0.99700    1.000
    N4593    N        0.82933    0.15611    0.13076    1.000
    Si4594   Si       0.74908    0.14942    0.19155    1.000
    Si4595   Si       0.84605    0.14405    0.16979    1.000
    N4596    N        0.75513    0.13367    0.15188    1.000
    N4597    N        0.85846    0.18069    0.18774    1.000
    N4598    N        0.94632    0.13014    0.14111    1.000
    Si4599   Si       0.94896    0.13475    0.23677    1.000
    Si4600   Si       0.95247    0.16942    0.16181    1.000
    Si4601   Si       0.80644    0.17246    0.33796    1.000
    N4602    N        0.80295    0.15506    0.25764    1.000
    N4603    N        0.80024    0.13175    0.32416    1.000
    N4604    N        0.86531    0.13537    0.29102    1.000
    N4605    N        0.94089    0.13929    0.37468    1.000
    Si4606   Si       0.87625    0.17652    0.29878    1.000
    N4607    N        0.95385    0.17123    0.25899    1.000
    Si4608   Si       0.95408    0.17045    0.30365    1.000
    N4609    N        0.91405    0.16512    0.31706    1.000
    Si4610   Si       0.91039    0.16735    0.36074    1.000
    N4611    N        0.97149    0.13063    0.31663    1.000
    N4612    N        0.87411    0.14808    0.37072    1.000
    Si4613   Si       0.79411    0.13331    0.40235    1.000
    Si4614   Si       0.78675    0.17286    0.46648    1.000
    N4615    N        0.82402    0.16140    0.48601    1.000
    N4616    N        0.76840    0.14848    0.43638    1.000
    N4617    N        0.80475    0.16927    0.38170    1.000
    N4618    N        0.85705    0.17759    0.42891    1.000
    Si4619   Si       0.86504    0.13925    0.41091    1.000
    Si4620   Si       0.86070    0.18071    0.47258    1.000
    N4621    N        0.89172    0.15599    0.49063    1.000
    Si4622   Si       0.82203    0.12772    0.28639    1.000
    Si4623   Si       0.80104    0.16647    0.53987    1.000
    N4624    N        0.76907    0.17167    0.57359    1.000
    N4625    N        0.76755    0.17286    0.50841    1.000
    Si4626   Si       0.74257    0.13914    0.58240    1.000
    N4627    N        0.97146    0.15491    0.66271    1.000
    N4628    N        0.82650    0.12930    0.54253    1.000
    N4629    N        0.84562    0.16067    0.62103    1.000
    N4630    N        0.91970    0.17240    0.61091    1.000
    Si4631   Si       0.87926    0.17647    0.59712    1.000
    Si4632   Si       0.97468    0.16439    0.52252    1.000
    N4633    N        0.94024    0.14351    0.53942    1.000
    Si4634   Si       0.92581    0.14110    0.58122    1.000
    N4635    N        0.88422    0.14422    0.56927    1.000
    Si4636   Si       0.91849    0.17803    0.51840    1.000
    N4637    N        0.78860    0.17842    0.65765    1.000
    N4638    N        0.74912    0.16805    0.71490    1.000
    Si4639   Si       0.79033    0.13590    0.64532    1.000
    N4640    N        0.93960    0.17008    0.72846    1.000
    Si4641   Si       0.94871    0.14298    0.69724    1.000
    Si4642   Si       0.94664    0.18639    0.64007    1.000
    Si4643   Si       0.75204    0.13040    0.50938    1.000
    N4644    N        0.76696    0.16689    0.85336    1.000
    N4645    N        0.77803    0.15410    0.77024    1.000
    Si4646   Si       0.74585    0.18423    0.75721    1.000
    N4647    N        0.83891    0.18278    0.77956    1.000
    N4648    N        0.86384    0.17975    0.84989    1.000
    Si4649   Si       0.98018    0.18225    0.98021    1.000
    Si4650   Si       0.86454    0.16262    0.80995    1.000
    Si4651   Si       0.94139    0.16207    0.77203    1.000
    N4652    N        0.90116    0.17195    0.78490    1.000
    Si4653   Si       0.97226    0.15175    0.86302    1.000
    N4654    N        0.94173    0.13618    0.83789    1.000
    Si4655   Si       0.79283    0.16811    0.88898    1.000
    Si4656   Si       0.78798    0.15960    0.96296    1.000
    N4657    N        0.76675    0.15868    0.92369    1.000
    N4658    N        0.83171    0.16193    0.96491    1.000
    N4659    N        0.81991    0.13306    0.88736    1.000
    Si4660   Si       0.86028    0.15047    0.88134    1.000
    N4661    N        0.95294    0.17837    0.89110    1.000
    N4662    N        0.93778    0.18048    0.96512    1.000
    N4663    N        0.88144    0.16819    0.91635    1.000
    Si4664   Si       0.92384    0.16695    0.92338    1.000
    Si4665   Si       0.81292    0.16676    0.74723    1.000
    N4666    N        0.83958    0.21626    0.09311    1.000
    Si4667   Si       0.82532    0.22660    0.05463    1.000
    N4668    N        0.81055    0.19158    0.03171    1.000
    N4669    N        0.74936    0.21835    0.03155    1.000
    Si4670   Si       0.81107    0.19251    0.11671    1.000
    N4671    N        0.77307    0.19364    0.09354    1.000
    N4672    N        0.96852    0.22969    0.10669    1.000
    Si4673   Si       0.87875    0.22908    0.99879    1.000
    N4674    N        0.88287    0.18744    0.00957    1.000
    Si4675   Si       0.83523    0.21651    0.17818    1.000
    Si4676   Si       0.76614    0.22016    0.17680    1.000
    N4677    N        0.80108    0.21443    0.15223    1.000
    N4678    N        0.83845    0.23817    0.21447    1.000
    N4679    N        0.86585    0.23309    0.15227    1.000
    Si4680   Si       0.89237    0.20793    0.17675    1.000
    N4681    N        0.92494    0.20101    0.14938    1.000
    N4682    N        0.97019    0.22833    0.21646    1.000
    Si4683   Si       0.87319    0.22938    0.23852    1.000
    Si4684   Si       0.93171    0.23715    0.12673    1.000
    N4685    N        0.90859    0.22739    0.21291    1.000
    Si4686   Si       0.77259    0.18552    0.04846    1.000
    Si4687   Si       0.93834    0.20892    0.24204    1.000
    N4688    N        0.77016    0.18603    0.20561    1.000
    N4689    N        0.77460    0.19894    0.32396    1.000
    N4690    N        0.79460    0.22697    0.26159    1.000
    Si4691   Si       0.85325    0.23088    0.34030    1.000
    N4692    N        0.84396    0.19232    0.32224    1.000
    Si4693   Si       0.78842    0.23663    0.30401    1.000
    Si4694   Si       0.77649    0.18823    0.24937    1.000
    N4695    N        0.87910    0.19442    0.26081    1.000
    N4696    N        0.98091    0.20044    0.31917    1.000
    N4697    N        0.93969    0.23496    0.27842    1.000
    Si4698   Si       0.97996    0.23643    0.29379    1.000
    N4699    N        0.91681    0.20613    0.37718    1.000
    N4700    N        0.84544    0.22942    0.38381    1.000
    Si4701   Si       0.82436    0.19998    0.40904    1.000
    N4702    N        0.79573    0.20829    0.44086    1.000
    N4703    N        0.74298    0.23361    0.47742    1.000
    Si4704   Si       0.76734    0.24139    0.44059    1.000
    Si4705   Si       0.96212    0.21414    0.46238    1.000
    N4706    N        0.97636    0.18771    0.43144    1.000
    N4707    N        0.87144    0.21614    0.49675    1.000
    N4708    N        0.92451    0.23642    0.45742    1.000
    N4709    N        0.80361    0.22229    0.60882    1.000
    Si4710   Si       0.76625    0.21402    0.58712    1.000
    N4711    N        0.76008    0.23196    0.54582    1.000
    N4712    N        0.82589    0.20370    0.54522    1.000
    Si4713   Si       0.74279    0.20815    0.51326    1.000
    Si4714   Si       0.80209    0.24293    0.53559    1.000
    Si4715   Si       0.86702    0.21568    0.54080    1.000
    N4716    N        0.87036    0.22066    0.58804    1.000
    N4717    N        0.91221    0.21134    0.54551    1.000
    Si4718   Si       0.90966    0.23989    0.57951    1.000
    Si4719   Si       0.92040    0.20545    0.71436    1.000
    Si4720   Si       0.82208    0.19407    0.63544    1.000
    N4721    N        0.75505    0.23763    0.68182    1.000
    Si4722   Si       0.84176    0.22076    0.70138    1.000
    N4723    N        0.80795    0.19911    0.71932    1.000
    Si4724   Si       0.77246    0.19807    0.69254    1.000
    N4725    N        0.85215    0.21258    0.65909    1.000
    N4726    N        0.91982    0.20056    0.67151    1.000
    N4727    N        0.92147    0.24074    0.62227    1.000
    N4728    N        0.87781    0.20914    0.72565    1.000
    N4729    N        0.98372    0.20656    0.62685    1.000
    Si4730   Si       0.89367    0.22956    0.65392    1.000
    N4731    N        0.94092    0.24338    0.72158    1.000
    Si4732   Si       0.96466    0.24792    0.62570    1.000
    N4733    N        0.95216    0.18721    0.49594    1.000
    N4734    N        0.80463    0.22068    0.84152    1.000
    Si4735   Si       0.76477    0.20928    0.83619    1.000
    Si4736   Si       0.83941    0.21126    0.86372    1.000
    N4737    N        0.76018    0.21039    0.79358    1.000
    Si4738   Si       0.87524    0.20398    0.76856    1.000
    N4739    N        0.92709    0.22526    0.84428    1.000
    Si4740   Si       0.93535    0.22559    0.80172    1.000
    N4741    N        0.96547    0.19489    0.79093    1.000
    N4742    N        0.89325    0.23340    0.79261    1.000
    N4743    N        0.75396    0.22608    0.91671    1.000
    N4744    N        0.82459    0.19569    0.90138    1.000
    N4745    N        0.76372    0.19278    0.97387    1.000
    Si4746   Si       0.85008    0.19130    0.93747    1.000
    N4747    N        0.85326    0.22665    0.96226    1.000
    Si4748   Si       0.74173    0.22542    0.99168    1.000
    Si4749   Si       0.94945    0.22037    0.88029    1.000
    N4750    N        0.97805    0.22558    0.98235    1.000
    Si4751   Si       0.94077    0.22718    0.96097    1.000
    N4752    N        0.92758    0.23187    0.91773    1.000
    N4753    N        0.79486    0.25852    0.05995    1.000
    N4754    N        0.83914    0.28547    0.11111    1.000
    Si4755   Si       0.75141    0.25339    0.05758    1.000
    Si4756   Si       0.85255    0.29215    0.02766    1.000
    Si4757   Si       0.80713    0.29511    0.08136    1.000
    N4758    N        0.85450    0.24794    0.03009    1.000
    Si4759   Si       0.86107    0.24661    0.11199    1.000
    N4760    N        0.95318    0.29077    0.07570    1.000
    Si4761   Si       0.91100    0.28924    0.08056    1.000
    N4762    N        0.96901    0.28899    0.01171    1.000
    N4763    N        0.90172    0.24938    0.09537    1.000
    Si4764   Si       0.98463    0.26115    0.08370    1.000
    N4765    N        0.77393    0.25836    0.19914    1.000
    Si4766   Si       0.80309    0.25852    0.23240    1.000
    Si4767   Si       0.75900    0.29843    0.18804    1.000
    N4768    N        0.94340    0.29772    0.21507    1.000
    Si4769   Si       0.94053    0.25755    0.19948    1.000
    N4770    N        0.93474    0.26792    0.15894    1.000
    N4771    N        0.74010    0.29026    0.03433    1.000
    N4772    N        0.76334    0.27009    0.29875    1.000
    N4773    N        0.82145    0.25583    0.32626    1.000
    Si4774   Si       0.82244    0.29785    0.33635    1.000
    Si4775   Si       0.85698    0.30122    0.26721    1.000
    N4776    N        0.81810    0.29518    0.24863    1.000
    N4777    N        0.87956    0.26331    0.26679    1.000
    Si4778   Si       0.91190    0.26373    0.29519    1.000
    N4779    N        0.98129    0.27198    0.31587    1.000
    N4780    N        0.89184    0.24997    0.33217    1.000
    N4781    N        0.85374    0.26524    0.44554    1.000
    N4782    N        0.79002    0.28066    0.43666    1.000
    Si4783   Si       0.85320    0.26779    0.40224    1.000
    Si4784   Si       0.81971    0.28250    0.46726    1.000
    N4785    N        0.82662    0.29456    0.38028    1.000
    Si4786   Si       0.91483    0.24845    0.36874    1.000
    N4787    N        0.98606    0.24843    0.47034    1.000
    Si4788   Si       0.94517    0.27040    0.47765    1.000
    N4789    N        0.95130    0.27061    0.37415    1.000
    N4790    N        0.89432    0.27882    0.39490    1.000
    Si4791   Si       0.88479    0.24839    0.47245    1.000
    Si4792   Si       0.93495    0.29905    0.40178    1.000
    N4793    N        0.89883    0.28289    0.49365    1.000
    N4794    N        0.81972    0.27064    0.56363    1.000
    N4795    N        0.80773    0.25483    0.49628    1.000
    Si4796   Si       0.83640    0.24694    0.59628    1.000
    N4797    N        0.89899    0.28068    0.56690    1.000
    N4798    N        0.95837    0.28391    0.51802    1.000
    N4799    N        0.97244    0.24985    0.58111    1.000
    Si4800   Si       0.91947    0.30215    0.53393    1.000
    Si4801   Si       0.87342    0.30398    0.59473    1.000
    N4802    N        0.78196    0.27122    0.74758    1.000
    N4803    N        0.85337    0.27783    0.62279    1.000
    Si4804   Si       0.78100    0.26721    0.70494    1.000
    N4805    N        0.82364    0.26071    0.69648    1.000
    Si4806   Si       0.85045    0.27878    0.66733    1.000
    N4807    N        0.89032    0.29538    0.74739    1.000
    N4808    N        0.98334    0.27594    0.65329    1.000
    N4809    N        0.88826    0.26217    0.68006    1.000
    Si4810   Si       0.91189    0.27444    0.71372    1.000
    N4811    N        0.77991    0.30592    0.68398    1.000
    Si4812   Si       0.97471    0.25673    0.74553    1.000
    Si4813   Si       0.81060    0.26207    0.83083    1.000
    N4814    N        0.77191    0.27251    0.81068    1.000
    N4815    N        0.83552    0.28136    0.79841    1.000
    N4816    N        0.80469    0.29213    0.86314    1.000
    Si4817   Si       0.75402    0.25013    0.77523    1.000
    Si4818   Si       0.80189    0.29891    0.77397    1.000
    N4819    N        0.85754    0.25133    0.86087    1.000
    N4820    N        0.95364    0.26291    0.78508    1.000
    Si4821   Si       0.89300    0.25151    0.83376    1.000
    N4822    N        0.90341    0.29307    0.82095    1.000
    Si4823   Si       0.97648    0.29647    0.86812    1.000
    Si4824   Si       0.87424    0.29961    0.78739    1.000
    Si4825   Si       0.94248    0.30224    0.80153    1.000
    Si4826   Si       0.92028    0.27373    0.91452    1.000
    N4827    N        0.95303    0.28663    0.94408    1.000
    N4828    N        0.75643    0.29478    0.91313    1.000
    Si4829   Si       0.84538    0.28325    0.88946    1.000
    Si4830   Si       0.77388    0.26026    0.93411    1.000
    Si4831   Si       0.84888    0.26849    0.95135    1.000
    N4832    N        0.76214    0.26007    0.97486    1.000
    N4833    N        0.81604    0.26900    0.92202    1.000
    N4834    N        0.83817    0.29549    0.98536    1.000
    Si4835   Si       0.74634    0.29548    0.99364    1.000
    N4836    N        0.93137    0.29649    0.87903    1.000
    N4837    N        0.91432    0.25020    0.98516    1.000
    Si4838   Si       0.93669    0.28819    0.98352    1.000
    N4839    N        0.87786    0.27767    0.92173    1.000
    N4840    N        0.97729    0.25094    0.87450    1.000
    N4841    N        0.82592    0.32117    0.05050    1.000
    N4842    N        0.76836    0.30931    0.09465    1.000
    N4843    N        0.87946    0.32649    0.24072    1.000
    N4844    N        0.94028    0.34883    0.04001    1.000
    Si4845   Si       0.96943    0.31728    0.04510    1.000
    Si4846   Si       0.90287    0.33673    0.02333    1.000
    N4847    N        0.90429    0.31581    0.11505    1.000
    N4848    N        0.89036    0.30168    0.04459    1.000
    N4849    N        0.84065    0.35422    0.13286    1.000
    Si4850   Si       0.79978    0.33497    0.23715    1.000
    N4851    N        0.82428    0.35058    0.20458    1.000
    N4852    N        0.78508    0.31998    0.15980    1.000
    N4853    N        0.76067    0.32014    0.22565    1.000
    Si4854   Si       0.75390    0.32545    0.13131    1.000
    Si4855   Si       0.80941    0.35429    0.16325    1.000
    Si4856   Si       0.86279    0.31682    0.13197    1.000
    N4857    N        0.94864    0.34328    0.16416    1.000
    Si4858   Si       0.92163    0.31035    0.15769    1.000
    Si4859   Si       0.96468    0.33480    0.20522    1.000
    N4860    N        0.94363    0.35747    0.23696    1.000
    N4861    N        0.87877    0.31229    0.17263    1.000
    Si4862   Si       0.86684    0.34185    0.20200    1.000
    N4863    N        0.79320    0.33017    0.33353    1.000
    N4864    N        0.84628    0.31769    0.30534    1.000
    Si4865   Si       0.82003    0.35223    0.30643    1.000
    Si4866   Si       0.75280    0.33163    0.34579    1.000
    N4867    N        0.94421    0.30207    0.44680    1.000
    N4868    N        0.97907    0.34325    0.32586    1.000
    Si4869   Si       0.97159    0.31118    0.29881    1.000
    Si4870   Si       0.92205    0.32108    0.24579    1.000
    N4871    N        0.89012    0.34565    0.45836    1.000
    Si4872   Si       0.79241    0.30839    0.40307    1.000
    N4873    N        0.78986    0.35203    0.41175    1.000
    N4874    N        0.83232    0.31841    0.48684    1.000
    N4875    N        0.75619    0.30340    0.38108    1.000
    N4876    N        0.92895    0.34261    0.40084    1.000
    Si4877   Si       0.93183    0.34347    0.44610    1.000
    Si4878   Si       0.87595    0.31899    0.48741    1.000
    N4879    N        0.79881    0.36316    0.27121    1.000
    N4880    N        0.92886    0.30575    0.28544    1.000
    N4881    N        0.84345    0.33520    0.58044    1.000
    Si4882   Si       0.80938    0.34902    0.50914    1.000
    N4883    N        0.78692    0.32935    0.53886    1.000
    N4884    N        0.79371    0.32357    0.61585    1.000
    Si4885   Si       0.80458    0.31101    0.57310    1.000
    Si4886   Si       0.81889    0.35761    0.61135    1.000
    Si4887   Si       0.74421    0.34097    0.54018    1.000
    N4888    N        0.88670    0.33197    0.52613    1.000
    N4889    N        0.94350    0.33365    0.55591    1.000
    Si4890   Si       0.92511    0.35360    0.58981    1.000
    Si4891   Si       0.98431    0.34254    0.53789    1.000
    N4892    N        0.89952    0.33028    0.61917    1.000
    Si4893   Si       0.86764    0.35914    0.55247    1.000
    Si4894   Si       0.76255    0.31286    0.64424    1.000
    Si4895   Si       0.81170    0.32796    0.70030    1.000
    N4896    N        0.85207    0.32347    0.67548    1.000
    N4897    N        0.82219    0.32478    0.74172    1.000
    Si4898   Si       0.91381    0.33199    0.73720    1.000
    N4899    N        0.74298    0.35102    0.65211    1.000
    N4900    N        0.93219    0.31050    0.70373    1.000
    Si4901   Si       0.97113    0.30420    0.68621    1.000
    N4902    N        0.98220    0.34282    0.67112    1.000
    Si4903   Si       0.87847    0.34903    0.65184    1.000
    N4904    N        0.78810    0.33116    0.80051    1.000
    Si4905   Si       0.77389    0.31319    0.83642    1.000
    Si4906   Si       0.84987    0.35483    0.75549    1.000
    N4907    N        0.77929    0.34702    0.86688    1.000
    N4908    N        0.86991    0.34523    0.79356    1.000
    N4909    N        0.93945    0.33202    0.77201    1.000
    N4910    N        0.97446    0.31613    0.82842    1.000
    Si4911   Si       0.90011    0.31809    0.85831    1.000
    N4912    N        0.91198    0.35796    0.84670    1.000
    N4913    N        0.77090    0.32856    0.99277    1.000
    Si4914   Si       0.78868    0.31699    0.89642    1.000
    N4915    N        0.81361    0.33658    0.92740    1.000
    Si4916   Si       0.81064    0.32721    0.97053    1.000
    Si4917   Si       0.84892    0.35836    0.90904    1.000
    N4918    N        0.86450    0.32407    0.88083    1.000
    N4919    N        0.98951    0.32586    0.89922    1.000
    N4920    N        0.91130    0.32431    0.98368    1.000
    Si4921   Si       0.91155    0.35814    0.95418    1.000
    N4922    N        0.78862    0.39139    0.02823    1.000
    N4923    N        0.83094    0.39282    0.07587    1.000
    Si4924   Si       0.84829    0.39380    0.11879    1.000
    Si4925   Si       0.79520    0.41572    0.06588    1.000
    Si4926   Si       0.75921    0.36327    0.01661    1.000
    N4927    N        0.75917    0.41590    0.09032    1.000
    N4928    N        0.92264    0.41481    0.04834    1.000
    N4929    N        0.87221    0.37068    0.03268    1.000
    Si4930   Si       0.87699    0.40185    0.06333    1.000
    N4931    N        0.95743    0.39002    0.10580    1.000
    Si4932   Si       0.96446    0.37796    0.06397    1.000
    N4933    N        0.88976    0.39575    0.10353    1.000
    Si4934   Si       0.94175    0.40912    0.01017    1.000
    N4935    N        0.98382    0.40217    0.02970    1.000
    N4936    N        0.79509    0.39477    0.14981    1.000
    Si4937   Si       0.75745    0.40052    0.13241    1.000
    N4938    N        0.75482    0.40276    0.22852    1.000
    N4939    N        0.98475    0.40506    0.16973    1.000
    Si4940   Si       0.97239    0.37337    0.14292    1.000
    N4941    N        0.88455    0.37697    0.18916    1.000
    Si4942   Si       0.88115    0.41724    0.17763    1.000
    Si4943   Si       0.92525    0.41802    0.11693    1.000
    Si4944   Si       0.82704    0.36289    0.03938    1.000
    N4945    N        0.93566    0.42538    0.22527    1.000
    N4946    N        0.84121    0.39046    0.31628    1.000
    Si4947   Si       0.77941    0.40172    0.26466    1.000
    N4948    N        0.74763    0.37425    0.35396    1.000
    N4949    N        0.76113    0.41921    0.30097    1.000
    N4950    N        0.97008    0.39750    0.28584    1.000
    N4951    N        0.91809    0.38524    0.33968    1.000
    Si4952   Si       0.96075    0.38299    0.32632    1.000
    N4953    N        0.90111    0.40612    0.27572    1.000
    Si4954   Si       0.88435    0.40188    0.31733    1.000
    Si4955   Si       0.93790    0.39466    0.25697    1.000
    N4956    N        0.81245    0.41101    0.37511    1.000
    Si4957   Si       0.77847    0.38512    0.38475    1.000
    N4958    N        0.76449    0.40878    0.42332    1.000
    N4959    N        0.82885    0.39796    0.44397    1.000
    Si4960   Si       0.78889    0.37940    0.44547    1.000
    N4961    N        0.78292    0.37540    0.48849    1.000
    N4962    N        0.93736    0.41273    0.40006    1.000
    Si4963   Si       0.93453    0.41574    0.44467    1.000
    N4964    N        0.87439    0.38743    0.40099    1.000
    N4965    N        0.95324    0.37859    0.45919    1.000
    Si4966   Si       0.91512    0.37963    0.38247    1.000
    Si4967   Si       0.86832    0.38159    0.44390    1.000
    N4968    N        0.89409    0.41490    0.46002    1.000
    Si4969   Si       0.84130    0.41952    0.40521    1.000
    N4970    N        0.78927    0.39062    0.60797    1.000
    Si4971   Si       0.76026    0.40433    0.51184    1.000
    N4972    N        0.83830    0.37771    0.52540    1.000
    Si4973   Si       0.74956    0.36873    0.60909    1.000
    N4974    N        0.88483    0.36382    0.73379    1.000
    N4975    N        0.95710    0.36926    0.61168    1.000
    N4976    N        0.89726    0.38316    0.57356    1.000
    Si4977   Si       0.98515    0.39307    0.58914    1.000
    Si4978   Si       0.85016    0.41897    0.65418    1.000
    N4979    N        0.84695    0.37762    0.63795    1.000
    Si4980   Si       0.81740    0.40459    0.72172    1.000
    N4981    N        0.85213    0.41136    0.69654    1.000
    Si4982   Si       0.75764    0.37733    0.68654    1.000
    N4983    N        0.79798    0.37173    0.70023    1.000
    Si4984   Si       0.89268    0.39746    0.70584    1.000
    N4985    N        0.95233    0.38353    0.73090    1.000
    N4986    N        0.90938    0.37291    0.67083    1.000
    N4987    N        0.96817    0.41043    0.66554    1.000
    Si4988   Si       0.95270    0.37003    0.65525    1.000
    N4989    N        0.98872    0.38472    0.54657    1.000
    N4990    N        0.80318    0.39646    0.82181    1.000
    N4991    N        0.82288    0.38775    0.76316    1.000
    Si4992   Si       0.79613    0.38835    0.86246    1.000
    Si4993   Si       0.78620    0.37198    0.78862    1.000
    Si4994   Si       0.83407    0.41454    0.79733    1.000
    N4995    N        0.74542    0.38481    0.78630    1.000
    Si4996   Si       0.86648    0.38434    0.98800    1.000
    N4997    N        0.87012    0.41013    0.82223    1.000
    N4998    N        0.92852    0.39665    0.79254    1.000
    Si4999   Si       0.89417    0.37627    0.81064    1.000
    Si5000   Si       0.95714    0.37096    0.77207    1.000
    N5001    N        0.83422    0.38921    0.88225    1.000
    N5002    N        0.78316    0.40810    0.95270    1.000
    Si5003   Si       0.80602    0.40130    0.98903    1.000
    N5004    N        0.77210    0.41687    0.88151    1.000
    N5005    N        0.82737    0.36136    0.99180    1.000
    N5006    N        0.96388    0.39172    0.87267    1.000
    Si5007   Si       0.97402    0.36591    0.90583    1.000
    N5008    N        0.87175    0.36831    0.94418    1.000
    Si5009   Si       0.92038    0.38098    0.88115    1.000
    N5010    N        0.91366    0.38619    0.98706    1.000
    N5011    N        0.89626    0.41802    0.88596    1.000
    N5012    N        0.93242    0.35803    0.91728    1.000
    Si5013   Si       0.86012    0.42098    0.86217    1.000
    N5014    N        0.79816    0.45609    0.05143    1.000
    Si5015   Si       0.75638    0.46442    0.09768    1.000
    Si5016   Si       0.76923    0.47496    0.02314    1.000
    Si5017   Si       0.83828    0.47424    0.05325    1.000
    N5018    N        0.86838    0.44480    0.06101    1.000
    N5019    N        0.92385    0.46077    0.10024    1.000
    Si5020   Si       0.91103    0.45628    0.05982    1.000
    Si5021   Si       0.95149    0.43203    0.18591    1.000
    N5022    N        0.79112    0.46189    0.12730    1.000
    N5023    N        0.79768    0.44630    0.19499    1.000
    Si5024   Si       0.75480    0.43395    0.19731    1.000
    Si5025   Si       0.80879    0.43474    0.15662    1.000
    Si5026   Si       0.82789    0.45237    0.22654    1.000
    N5027    N        0.84958    0.42495    0.14868    1.000
    N5028    N        0.86732    0.43824    0.21392    1.000
    Si5029   Si       0.89680    0.43720    0.24593    1.000
    N5030    N        0.91917    0.42763    0.15924    1.000
    N5031    N        0.98335    0.46132    0.19259    1.000
    Si5032   Si       0.78022    0.46140    0.29163    1.000
    N5033    N        0.80807    0.46343    0.32529    1.000
    N5034    N        0.80780    0.43489    0.26014    1.000
    Si5035   Si       0.82880    0.42748    0.33644    1.000
    N5036    N        0.73781    0.44084    0.36677    1.000
    N5037    N        0.87039    0.43996    0.33547    1.000
    Si5038   Si       0.88878    0.47621    0.34286    1.000
    N5039    N        0.93400    0.46296    0.32542    1.000
    Si5040   Si       0.97478    0.44949    0.30928    1.000
    N5041    N        0.96479    0.46888    0.27091    1.000
    Si5042   Si       0.94449    0.44551    0.37001    1.000
    Si5043   Si       0.87485    0.45257    0.46775    1.000
    N5044    N        0.90918    0.47515    0.48739    1.000
    N5045    N        0.73675    0.42813    0.48444    1.000
    Si5046   Si       0.76066    0.44897    0.40370    1.000
    N5047    N        0.85569    0.45709    0.42624    1.000
    Si5048   Si       0.74442    0.47220    0.47763    1.000
    N5049    N        0.95895    0.45084    0.45472    1.000
    N5050    N        0.73792    0.46985    0.43416    1.000
    Si5051   Si       0.95261    0.47410    0.49015    1.000
    N5052    N        0.96843    0.47514    0.38848    1.000
    N5053    N        0.90583    0.47287    0.38236    1.000
    N5054    N        0.78963    0.47928    0.39343    1.000
    N5055    N        0.97516    0.42286    0.34551    1.000
    N5056    N        0.77735    0.46275    0.58987    1.000
    Si5057   Si       0.78259    0.46750    0.54834    1.000
    Si5058   Si       0.80449    0.43069    0.60170    1.000
    N5059    N        0.78892    0.42710    0.53487    1.000
    N5060    N        0.84081    0.42473    0.57397    1.000
    N5061    N        0.84593    0.44573    0.49998    1.000
    Si5062   Si       0.95535    0.41760    0.70740    1.000
    Si5063   Si       0.95137    0.45511    0.56443    1.000
    N5064    N        0.90853    0.45237    0.57283    1.000
    N5065    N        0.96278    0.44556    0.52278    1.000
    N5066    N        0.97654    0.43704    0.59431    1.000
    N5067    N        0.94189    0.46927    0.64980    1.000
    N5068    N        0.82173    0.44452    0.63836    1.000
    N5069    N        0.79540    0.44086    0.72382    1.000
    Si5070   Si       0.75456    0.44575    0.70866    1.000
    Si5071   Si       0.92809    0.46747    0.73452    1.000
    N5072    N        0.96863    0.45264    0.72943    1.000
    N5073    N        0.88749    0.43197    0.63360    1.000
    Si5074   Si       0.97440    0.44381    0.63861    1.000
    N5075    N        0.91562    0.43544    0.70469    1.000
    Si5076   Si       0.90400    0.45509    0.66690    1.000
    Si5077   Si       0.83077    0.41938    0.53213    1.000
    Si5078   Si       0.88338    0.42237    0.58855    1.000
    N5079    N        0.75293    0.41896    0.67447    1.000
    N5080    N        0.83269    0.45486    0.78468    1.000
    N5081    N        0.83418    0.45693    0.85523    1.000
    Si5082   Si       0.80863    0.47195    0.75018    1.000
    N5083    N        0.98245    0.43142    0.81014    1.000
    N5084    N        0.92393    0.47027    0.77928    1.000
    Si5085   Si       0.93837    0.43766    0.80366    1.000
    N5086    N        0.93562    0.44950    0.84650    1.000
    Si5087   Si       0.97421    0.42943    0.85260    1.000
    Si5088   Si       0.79391    0.45749    0.87404    1.000
    Si5089   Si       0.83464    0.46539    0.98248    1.000
    N5090    N        0.78981    0.46179    0.98500    1.000
    Si5091   Si       0.77249    0.45059    0.94606    1.000
    N5092    N        0.84428    0.42364    0.99012    1.000
    N5093    N        0.78589    0.47518    0.91222    1.000
    N5094    N        0.84959    0.47640    0.94472    1.000
    N5095    N        0.94948    0.44087    0.98318    1.000
    Si5096   Si       0.96757    0.43038    0.94581    1.000
    Si5097   Si       0.91837    0.45591    0.88551    1.000
    N5098    N        0.95247    0.45478    0.91310    1.000
    N5099    N        0.77049    0.51775    0.02088    1.000
    N5100    N        0.83939    0.50378    0.08535    1.000
    N5101    N        0.76829    0.50557    0.09027    1.000
    N5102    N        0.85155    0.49172    0.01266    1.000
    Si5103   Si       0.80532    0.50210    0.11454    1.000
    Si5104   Si       0.76454    0.53831    0.05814    1.000
    N5105    N        0.95136    0.51681    0.08326    1.000
    Si5106   Si       0.92688    0.50095    0.11658    1.000
    N5107    N        0.89366    0.52687    0.11762    1.000
    Si5108   Si       0.88895    0.51204    0.00788    1.000
    N5109    N        0.91499    0.47982    0.02461    1.000
    N5110    N        0.95138    0.51246    0.14999    1.000
    N5111    N        0.76558    0.52345    0.20492    1.000
    N5112    N        0.83322    0.49555    0.23100    1.000
    Si5113   Si       0.79718    0.52032    0.23537    1.000
    N5114    N        0.80821    0.53620    0.14245    1.000
    Si5115   Si       0.87604    0.50314    0.22632    1.000
    Si5116   Si       0.98731    0.49444    0.16464    1.000
    N5117    N        0.88338    0.50309    0.18193    1.000
    Si5118   Si       0.86930    0.53717    0.08192    1.000
    Si5119   Si       0.80781    0.49650    0.35684    1.000
    N5120    N        0.77651    0.49595    0.26376    1.000
    N5121    N        0.85173    0.50251    0.36109    1.000
    Si5122   Si       0.74522    0.51934    0.28504    1.000
    N5123    N        0.78676    0.53551    0.35582    1.000
    N5124    N        0.74348    0.48569    0.31371    1.000
    Si5125   Si       0.86378    0.53557    0.33325    1.000
    N5126    N        0.94687    0.52577    0.28876    1.000
    N5127    N        0.89556    0.51057    0.31631    1.000
    Si5128   Si       0.92419    0.48808    0.28754    1.000
    N5129    N        0.94635    0.52636    0.36077    1.000
    Si5130   Si       0.98384    0.50500    0.35900    1.000
    Si5131   Si       0.86676    0.49266    0.40433    1.000
    N5132    N        0.85304    0.50767    0.48070    1.000
    Si5133   Si       0.79490    0.50558    0.42856    1.000
    N5134    N        0.83186    0.52727    0.42131    1.000
    N5135    N        0.78852    0.48498    0.46725    1.000
    Si5136   Si       0.86846    0.53434    0.45065    1.000
    Si5137   Si       0.93193    0.50819    0.39859    1.000
    N5138    N        0.89534    0.51869    0.42122    1.000
    N5139    N        0.96083    0.52852    0.42892    1.000
    N5140    N        0.76489    0.53958    0.42556    1.000
    N5141    N        0.89897    0.47889    0.25496    1.000
    Si5142   Si       0.84395    0.51610    0.56514    1.000
    N5143    N        0.81733    0.49234    0.53902    1.000
    N5144    N        0.85824    0.49768    0.60038    1.000
    N5145    N        0.75210    0.48387    0.52185    1.000
    Si5146   Si       0.74356    0.48374    0.60709    1.000
    Si5147   Si       0.82143    0.48246    0.49533    1.000
    N5148    N        0.88383    0.51406    0.54570    1.000
    N5149    N        0.94686    0.49741    0.57068    1.000
    Si5150   Si       0.89158    0.51046    0.50301    1.000
    Si5151   Si       0.90374    0.49750    0.58416    1.000
    Si5152   Si       0.98055    0.52266    0.57939    1.000
    N5153    N        0.91601    0.52665    0.61682    1.000
    N5154    N        0.96524    0.51646    0.49695    1.000
    Si5155   Si       0.84328    0.51101    0.69302    1.000
    N5156    N        0.82690    0.50761    0.73259    1.000
    N5157    N        0.81989    0.51986    0.65782    1.000
    N5158    N        0.75983    0.51328    0.63417    1.000
    Si5159   Si       0.83933    0.48618    0.63779    1.000
    N5160    N        0.86539    0.47952    0.67327    1.000
    N5161    N        0.94631    0.52948    0.68016    1.000
    N5162    N        0.91189    0.50652    0.73260    1.000
    Si5163   Si       0.94769    0.51096    0.64110    1.000
    N5164    N        0.98430    0.52202    0.62416    1.000
    N5165    N        0.82022    0.51429    0.80350    1.000
    Si5166   Si       0.77950    0.50153    0.80933    1.000
    N5167    N        0.77184    0.49042    0.76755    1.000
    Si5168   Si       0.83154    0.53668    0.76634    1.000
    Si5169   Si       0.84573    0.48044    0.81875    1.000
    N5170    N        0.89390    0.49204    0.88561    1.000
    Si5171   Si       0.90320    0.51026    0.77819    1.000
    Si5172   Si       0.90049    0.52132    0.85410    1.000
    N5173    N        0.88365    0.50332    0.81770    1.000
    N5174    N        0.94274    0.53036    0.85434    1.000
    N5175    N        0.92056    0.51228    0.97347    1.000
    Si5176   Si       0.78797    0.51872    0.91383    1.000
    N5177    N        0.82521    0.52307    0.88959    1.000
    Si5178   Si       0.85778    0.50294    0.91103    1.000
    N5179    N        0.80296    0.53036    0.95410    1.000
    Si5180   Si       0.76740    0.53784    0.98075    1.000
    Si5181   Si       0.94530    0.48484    0.99277    1.000
    N5182    N        0.74053    0.51008    0.95930    1.000
    N5183    N        0.76930    0.47698    0.84356    1.000
    N5184    N        0.78662    0.57328    0.05375    1.000
    N5185    N        0.84635    0.57206    0.09121    1.000
    N5186    N        0.84550    0.59300    0.02503    1.000
    Si5187   Si       0.82454    0.59534    0.06267    1.000
    N5188    N        0.97048    0.55659    0.03023    1.000
    Si5189   Si       0.88310    0.57581    0.01848    1.000
    N5190    N        0.94101    0.58296    0.08560    1.000
    Si5191   Si       0.97848    0.58402    0.10848    1.000
    Si5192   Si       0.93873    0.54803    0.05889    1.000
    N5193    N        0.89665    0.54280    0.04697    1.000
    Si5194   Si       0.76227    0.59936    0.02256    1.000
    Si5195   Si       0.82776    0.57371    0.13167    1.000
    N5196    N        0.78733    0.58478    0.19038    1.000
    Si5197   Si       0.77842    0.54607    0.17099    1.000
    N5198    N        0.74411    0.59035    0.23880    1.000
    Si5199   Si       0.78781    0.59180    0.23406    1.000
    N5200    N        0.81192    0.55839    0.24678    1.000
    N5201    N        0.86072    0.57361    0.15909    1.000
    N5202    N        0.94583    0.57327    0.24104    1.000
    N5203    N        0.91975    0.56047    0.18090    1.000
    N5204    N        0.97007    0.59178    0.15095    1.000
    N5205    N        0.87855    0.54364    0.23729    1.000
    Si5206   Si       0.95960    0.55261    0.16694    1.000
    Si5207   Si       0.90765    0.57160    0.22070    1.000
    Si5208   Si       0.88827    0.53987    0.15800    1.000
    Si5209   Si       0.79513    0.56099    0.32248    1.000
    N5210    N        0.75553    0.55737    0.29938    1.000
    Si5211   Si       0.85035    0.55755    0.26692    1.000
    N5212    N        0.83237    0.54442    0.30570    1.000
    N5213    N        0.86559    0.59522    0.28107    1.000
    N5214    N        0.89094    0.56667    0.34170    1.000
    Si5215   Si       0.96387    0.56848    0.28046    1.000
    N5216    N        0.95384    0.57874    0.32054    1.000
    Si5217   Si       0.92675    0.54422    0.32667    1.000
    N5218    N        0.77912    0.57808    0.48963    1.000
    Si5219   Si       0.76491    0.57734    0.44833    1.000
    Si5220   Si       0.83298    0.57357    0.41862    1.000
    N5221    N        0.84469    0.59261    0.38059    1.000
    Si5222   Si       0.75166    0.53967    0.38346    1.000
    N5223    N        0.86493    0.57633    0.44841    1.000
    Si5224   Si       0.88353    0.58586    0.48622    1.000
    Si5225   Si       0.94748    0.54284    0.46814    1.000
    N5226    N        0.90540    0.54621    0.48221    1.000
    N5227    N        0.96743    0.58295    0.47414    1.000
    N5228    N        0.79699    0.59906    0.42798    1.000
    Si5229   Si       0.79181    0.57291    0.57533    1.000
    N5230    N        0.83196    0.55920    0.57176    1.000
    N5231    N        0.75958    0.55368    0.55303    1.000
    N5232    N        0.84947    0.58299    0.51181    1.000
    Si5233   Si       0.86178    0.58944    0.55373    1.000
    Si5234   Si       0.74737    0.57765    0.51888    1.000
    N5235    N        0.78040    0.57721    0.61730    1.000
    N5236    N        0.93747    0.59553    0.63436    1.000
    N5237    N        0.90013    0.57888    0.57236    1.000
    Si5238   Si       0.90658    0.56801    0.61228    1.000
    N5239    N        0.98488    0.55997    0.55612    1.000
    Si5240   Si       0.85385    0.57922    0.67585    1.000
    N5241    N        0.81092    0.58310    0.67611    1.000
    N5242    N        0.75074    0.55353    0.68009    1.000
    Si5243   Si       0.78587    0.54783    0.65091    1.000
    Si5244   Si       0.97154    0.55232    0.70779    1.000
    N5245    N        0.87762    0.58225    0.64017    1.000
    N5246    N        0.93466    0.57089    0.72543    1.000
    N5247    N        0.87090    0.54639    0.69581    1.000
    N5248    N        0.98218    0.58948    0.68804    1.000
    Si5249   Si       0.91196    0.53888    0.70554    1.000
    N5250    N        0.80287    0.56844    0.76961    1.000
    Si5251   Si       0.75798    0.56204    0.77735    1.000
    N5252    N        0.93823    0.55435    0.91651    1.000
    N5253    N        0.75616    0.53875    0.81197    1.000
    N5254    N        0.87326    0.54619    0.76847    1.000
    Si5255   Si       0.95845    0.55949    0.82071    1.000
    N5256    N        0.88114    0.55953    0.85870    1.000
    Si5257   Si       0.90835    0.57085    0.76260    1.000
    N5258    N        0.93315    0.54392    0.78784    1.000
    N5259    N        0.87356    0.54981    0.98555    1.000
    N5260    N        0.75855    0.54682    0.89580    1.000
    Si5261   Si       0.84065    0.55294    0.95765    1.000
    Si5262   Si       0.84902    0.56057    0.88825    1.000
    N5263    N        0.74850    0.57614    0.98923    1.000
    Si5264   Si       0.74171    0.58831    0.89919    1.000
    Si5265   Si       0.90740    0.54848    0.94862    1.000
    N5266    N        0.82550    0.59565    0.95622    1.000
    N5267    N        0.91253    0.59089    0.95804    1.000
    N5268    N        0.86976    0.54505    0.92435    1.000
    Si5269   Si       0.96826    0.54160    0.88825    1.000
    Si5270   Si       0.74281    0.54276    0.85383    1.000
    N5271    N        0.93503    0.59870    0.82641    1.000
    Si5272   Si       0.89917    0.59701    0.85062    1.000
    N5273    N        0.81918    0.63539    0.07240    1.000
    N5274    N        0.78909    0.63023    0.00963    1.000
    Si5275   Si       0.81137    0.65025    0.11420    1.000
    Si5276   Si       0.91318    0.64973    0.19613    1.000
    N5277    N        0.96440    0.63262    0.05044    1.000
    Si5278   Si       0.92441    0.61561    0.06364    1.000
    N5279    N        0.90340    0.64575    0.08344    1.000
    N5280    N        0.91141    0.60696    0.02350    1.000
    Si5281   Si       0.97980    0.60063    0.02599    1.000
    N5282    N        0.80135    0.60785    0.13351    1.000
    Si5283   Si       0.78482    0.62541    0.17181    1.000
    N5284    N        0.81809    0.64165    0.20127    1.000
    N5285    N        0.74338    0.63381    0.18320    1.000
    N5286    N        0.92341    0.64435    0.15208    1.000
    Si5287   Si       0.97478    0.60423    0.22786    1.000
    Si5288   Si       0.96399    0.63384    0.16305    1.000
    N5289    N        0.89754    0.61572    0.22067    1.000
    N5290    N        0.95578    0.63608    0.20630    1.000
    Si5291   Si       0.82277    0.65551    0.24178    1.000
    N5292    N        0.80070    0.62467    0.26341    1.000
    N5293    N        0.80281    0.60532    0.32361    1.000
    Si5294   Si       0.83948    0.62307    0.29820    1.000
    Si5295   Si       0.82222    0.62022    0.35797    1.000
    Si5296   Si       0.77865    0.63556    0.30099    1.000
    N5297    N        0.85997    0.63509    0.33583    1.000
    N5298    N        0.98015    0.61199    0.27027    1.000
    Si5299   Si       0.88893    0.62658    0.26165    1.000
    N5300    N        0.91437    0.63858    0.29394    1.000
    Si5301   Si       0.95842    0.64434    0.28961    1.000
    N5302    N        0.97626    0.64528    0.32906    1.000
    Si5303   Si       0.98098    0.60362    0.34215    1.000
    Si5304   Si       0.88323    0.60337    0.36191    1.000
    N5305    N        0.91376    0.63312    0.36590    1.000
    Si5306   Si       0.89929    0.65573    0.33021    1.000
    Si5307   Si       0.81503    0.63644    0.44083    1.000
    N5308    N        0.81802    0.63780    0.48574    1.000
    N5309    N        0.85473    0.64626    0.42747    1.000
    N5310    N        0.79997    0.65018    0.37727    1.000
    N5311    N        0.73754    0.62997    0.29499    1.000
    N5312    N        0.92719    0.63572    0.43807    1.000
    Si5313   Si       0.94582    0.61989    0.47463    1.000
    Si5314   Si       0.94439    0.63716    0.39750    1.000
    N5315    N        0.97398    0.60491    0.38572    1.000
    N5316    N        0.79283    0.60993    0.54714    1.000
    Si5317   Si       0.77721    0.64607    0.56857    1.000
    N5318    N        0.74180    0.63023    0.58999    1.000
    N5319    N        0.86374    0.63344    0.54994    1.000
    Si5320   Si       0.89777    0.64352    0.52347    1.000
    N5321    N        0.91391    0.61152    0.50232    1.000
    N5322    N        0.98049    0.63222    0.57523    1.000
    Si5323   Si       0.75341    0.60807    0.62729    1.000
    N5324    N        0.74711    0.60935    0.71658    1.000
    Si5325   Si       0.78344    0.61372    0.69015    1.000
    N5326    N        0.77350    0.63480    0.65270    1.000
    N5327    N        0.80677    0.64235    0.71100    1.000
    Si5328   Si       0.89602    0.63342    0.72534    1.000
    N5329    N        0.93593    0.64306    0.71221    1.000
    Si5330   Si       0.90313    0.61355    0.65391    1.000
    Si5331   Si       0.96202    0.60831    0.72028    1.000
    N5332    N        0.87439    0.61605    0.69160    1.000
    N5333    N        0.98274    0.64774    0.64969    1.000
    Si5334   Si       0.97739    0.60405    0.64732    1.000
    Si5335   Si       0.81131    0.60228    0.50785    1.000
    N5336    N        0.96826    0.65259    0.49346    1.000
    Si5337   Si       0.84544    0.65116    0.69385    1.000
    Si5338   Si       0.83052    0.62041    0.85418    1.000
    N5339    N        0.82483    0.63698    0.77584    1.000
    N5340    N        0.75468    0.60818    0.78585    1.000
    Si5341   Si       0.79903    0.60544    0.79115    1.000
    N5342    N        0.80186    0.59921    0.83272    1.000
    N5343    N        0.74790    0.65444    0.83952    1.000
    Si5344   Si       0.92568    0.62059    0.98596    1.000
    Si5345   Si       0.86756    0.63505    0.79081    1.000
    Si5346   Si       0.73876    0.63365    0.75151    1.000
    N5347    N        0.86700    0.61853    0.83098    1.000
    N5348    N        0.98411    0.60725    0.75556    1.000
    Si5349   Si       0.95099    0.63936    0.82475    1.000
    N5350    N        0.89363    0.61215    0.76367    1.000
    N5351    N        0.98647    0.63803    0.84877    1.000
    N5352    N        0.83493    0.59999    0.89124    1.000
    N5353    N        0.77197    0.61817    0.89987    1.000
    Si5354   Si       0.80773    0.61857    0.92292    1.000
    N5355    N        0.85425    0.65137    0.98836    1.000
    Si5356   Si       0.82822    0.61846    0.99338    1.000
    Si5357   Si       0.77455    0.65639    0.87395    1.000
    Si5358   Si       0.93465    0.59720    0.91834    1.000
    N5359    N        0.97204    0.61945    0.91941    1.000
    N5360    N        0.91146    0.61519    0.88918    1.000
    N5361    N        0.96959    0.61427    0.98666    1.000
    N5362    N        0.80197    0.69587    0.02259    1.000
    Si5363   Si       0.82584    0.67500    0.05561    1.000
    N5364    N        0.80593    0.69200    0.09235    1.000
    Si5365   Si       0.77307    0.66889    0.00598    1.000
    N5366    N        0.86391    0.69562    0.05112    1.000
    N5367    N        0.93928    0.69663    0.05241    1.000
    Si5368   Si       0.97757    0.67278    0.05750    1.000
    N5369    N        0.90188    0.70304    0.11211    1.000
    Si5370   Si       0.90066    0.68841    0.07026    1.000
    N5371    N        0.79194    0.66581    0.15160    1.000
    Si5372   Si       0.76853    0.70190    0.15670    1.000
    Si5373   Si       0.83413    0.67130    0.17256    1.000
    N5374    N        0.85323    0.65487    0.13526    1.000
    N5375    N        0.74037    0.67537    0.03384    1.000
    Si5376   Si       0.89072    0.71250    0.20081    1.000
    Si5377   Si       0.89456    0.66146    0.12531    1.000
    N5378    N        0.93297    0.69548    0.20212    1.000
    N5379    N        0.87475    0.67353    0.19330    1.000
    Si5380   Si       0.97069    0.67781    0.22477    1.000
    N5381    N        0.79028    0.67508    0.31485    1.000
    Si5382   Si       0.79858    0.68871    0.35600    1.000
    Si5383   Si       0.85127    0.70446    0.26662    1.000
    Si5384   Si       0.76854    0.70575    0.29313    1.000
    N5385    N        0.74422    0.68871    0.26226    1.000
    N5386    N        0.85754    0.65645    0.26801    1.000
    N5387    N        0.81518    0.69542    0.24359    1.000
    N5388    N        0.96452    0.68240    0.26885    1.000
    N5389    N        0.92102    0.69477    0.33162    1.000
    Si5390   Si       0.96256    0.68217    0.34580    1.000
    N5391    N        0.98793    0.71336    0.32448    1.000
    N5392    N        0.76027    0.69561    0.37443    1.000
    N5393    N        0.78585    0.66682    0.43764    1.000
    Si5394   Si       0.79972    0.70589    0.45367    1.000
    N5395    N        0.83816    0.70451    0.46916    1.000
    Si5396   Si       0.76333    0.66043    0.40071    1.000
    N5397    N        0.77306    0.71206    0.48821    1.000
    N5398    N        0.88122    0.66263    0.48781    1.000
    N5399    N        0.96153    0.67671    0.38772    1.000
    N5400    N        0.90562    0.70069    0.44041    1.000
    N5401    N        0.98346    0.70828    0.44301    1.000
    Si5402   Si       0.89023    0.65962    0.44619    1.000
    N5403    N        0.76202    0.67494    0.54153    1.000
    N5404    N        0.82786    0.68986    0.53731    1.000
    Si5405   Si       0.84484    0.66763    0.57130    1.000
    Si5406   Si       0.78796    0.71098    0.53133    1.000
    Si5407   Si       0.84032    0.67251    0.49907    1.000
    N5408    N        0.80743    0.66244    0.59506    1.000
    N5409    N        0.98388    0.70205    0.54566    1.000
    Si5410   Si       0.98456    0.67550    0.58116    1.000
    N5411    N        0.87764    0.68691    0.59276    1.000
    Si5412   Si       0.95559    0.68710    0.51491    1.000
    N5413    N        0.94882    0.68897    0.60238    1.000
    Si5414   Si       0.91578    0.69938    0.57411    1.000
    N5415    N        0.92365    0.67322    0.54059    1.000
    N5416    N        0.83687    0.66919    0.65471    1.000
    N5417    N        0.77182    0.70239    0.64423    1.000
    Si5418   Si       0.79634    0.66774    0.63830    1.000
    Si5419   Si       0.94588    0.67380    0.64254    1.000
    Si5420   Si       0.87654    0.68288    0.63543    1.000
    Si5421   Si       0.96094    0.67807    0.70944    1.000
    N5422    N        0.87338    0.67124    0.71987    1.000
    N5423    N        0.95062    0.70604    0.74074    1.000
    N5424    N        0.95130    0.70364    0.67465    1.000
    N5425    N        0.90655    0.65465    0.64700    1.000
    N5426    N        0.82675    0.70117    0.75804    1.000
    N5427    N        0.75962    0.67045    0.75409    1.000
    N5428    N        0.81692    0.65944    0.86613    1.000
    Si5429   Si       0.80398    0.66403    0.74931    1.000
    N5430    N        0.93497    0.69178    0.91247    1.000
    Si5431   Si       0.86982    0.69862    0.75300    1.000
    Si5432   Si       0.90495    0.69043    0.82054    1.000
    N5433    N        0.88153    0.67523    0.78833    1.000
    N5434    N        0.92256    0.66429    0.84853    1.000
    Si5435   Si       0.96365    0.70693    0.78237    1.000
    N5436    N        0.97169    0.66507    0.79404    1.000
    Si5437   Si       0.77617    0.68711    0.93729    1.000
    N5438    N        0.75976    0.69055    0.89726    1.000
    N5439    N        0.75250    0.67213    0.96813    1.000
    Si5440   Si       0.83474    0.68046    0.90101    1.000
    N5441    N        0.81088    0.66232    0.93173    1.000
    N5442    N        0.87368    0.67159    0.91588    1.000
    Si5443   Si       0.87784    0.67461    0.96132    1.000
    N5444    N        0.91736    0.65868    0.96846    1.000
    Si5445   Si       0.94809    0.68570    0.95559    1.000
    Si5446   Si       0.90951    0.66009    0.89219    1.000
    Si5447   Si       0.73936    0.70905    0.76398    1.000
    Si5448   Si       0.80020    0.73455    0.10065    1.000
    N5449    N        0.79227    0.75565    0.06378    1.000
    Si5450   Si       0.79346    0.73801    0.02564    1.000
    N5451    N        0.75359    0.74002    0.01137    1.000
    N5452    N        0.83978    0.74714    0.11316    1.000
    N5453    N        0.82983    0.75414    0.00809    1.000
    Si5454   Si       0.86188    0.72803    0.01992    1.000
    Si5455   Si       0.86666    0.76598    0.08716    1.000
    N5456    N        0.88374    0.75525    0.04911    1.000
    N5457    N        0.95640    0.76111    0.03633    1.000
    Si5458   Si       0.95855    0.72268    0.02096    1.000
    N5459    N        0.90363    0.77150    0.10989    1.000
    Si5460   Si       0.80201    0.72209    0.21250    1.000
    N5461    N        0.76933    0.73941    0.13124    1.000
    N5462    N        0.80540    0.76034    0.23260    1.000
    Si5463   Si       0.84569    0.74625    0.15630    1.000
    N5464    N        0.76234    0.71443    0.19840    1.000
    Si5465   Si       0.95673    0.73163    0.19239    1.000
    N5466    N        0.93621    0.76529    0.21786    1.000
    N5467    N        0.88061    0.72258    0.24072    1.000
    Si5468   Si       0.91441    0.73669    0.13381    1.000
    N5469    N        0.95499    0.73746    0.15092    1.000
    N5470    N        0.88643    0.73927    0.16682    1.000
    Si5471   Si       0.98506    0.75415    0.12540    1.000
    N5472    N        0.82449    0.71234    0.17557    1.000
    Si5473   Si       0.82824    0.74559    0.32323    1.000
    N5474    N        0.79269    0.74079    0.29948    1.000
    N5475    N        0.82107    0.72580    0.36127    1.000
    N5476    N        0.86026    0.72750    0.30333    1.000
    Si5477   Si       0.78150    0.76729    0.26746    1.000
    N5478    N        0.89402    0.75855    0.35552    1.000
    N5479    N        0.92971    0.74759    0.29086    1.000
    Si5480   Si       0.90080    0.73135    0.32153    1.000
    Si5481   Si       0.96684    0.72181    0.28797    1.000
    Si5482   Si       0.90695    0.75457    0.25361    1.000
    N5483    N        0.79221    0.73314    0.42226    1.000
    Si5484   Si       0.82434    0.75101    0.39725    1.000
    Si5485   Si       0.75105    0.73747    0.41307    1.000
    N5486    N        0.86166    0.74673    0.41903    1.000
    Si5487   Si       0.89815    0.76307    0.39880    1.000
    Si5488   Si       0.87317    0.72606    0.45605    1.000
    Si5489   Si       0.94144    0.72255    0.44697    1.000
    Si5490   Si       0.97845    0.77254    0.41241    1.000
    N5491    N        0.93771    0.75585    0.41734    1.000
    N5492    N        0.94338    0.72169    0.49080    1.000
    N5493    N        0.88743    0.75462    0.48403    1.000
    N5494    N        0.74653    0.77360    0.43629    1.000
    N5495    N        0.98826    0.75218    0.26487    1.000
    N5496    N        0.78787    0.75085    0.54812    1.000
    Si5497   Si       0.77002    0.76322    0.58780    1.000
    N5498    N        0.79905    0.75998    0.61939    1.000
    N5499    N        0.86722    0.76838    0.61595    1.000
    N5500    N        0.91224    0.74191    0.55598    1.000
    Si5501   Si       0.92349    0.75237    0.51332    1.000
    Si5502   Si       0.90393    0.76648    0.59178    1.000
    N5503    N        0.93614    0.75689    0.61997    1.000
    N5504    N        0.97945    0.77340    0.55964    1.000
    Si5505   Si       0.79407    0.73678    0.65823    1.000
    N5506    N        0.83331    0.74043    0.67729    1.000
    N5507    N        0.77671    0.74745    0.69669    1.000
    Si5508   Si       0.81362    0.76235    0.71078    1.000
    Si5509   Si       0.92869    0.74070    0.73147    1.000
    Si5510   Si       0.86819    0.75553    0.65677    1.000
    N5511    N        0.89027    0.71955    0.65384    1.000
    N5512    N        0.92019    0.76095    0.69428    1.000
    Si5513   Si       0.93118    0.73743    0.65786    1.000
    Si5514   Si       0.84414    0.74048    0.85488    1.000
    N5515    N        0.81717    0.74605    0.82438    1.000
    Si5516   Si       0.77220    0.74837    0.82516    1.000
    Si5517   Si       0.81418    0.73483    0.78183    1.000
    N5518    N        0.77015    0.73244    0.78535    1.000
    N5519    N        0.82094    0.76623    0.75249    1.000
    N5520    N        0.94311    0.72036    0.98176    1.000
    N5521    N        0.88141    0.72085    0.84282    1.000
    Si5522   Si       0.91326    0.74988    0.83558    1.000
    N5523    N        0.93330    0.72133    0.80915    1.000
    N5524    N        0.89077    0.73595    0.75523    1.000
    N5525    N        0.94123    0.75572    0.86819    1.000
    N5526    N        0.77567    0.76430    0.88850    1.000
    N5527    N        0.78075    0.73035    0.94612    1.000
    Si5528   Si       0.80666    0.75053    0.91597    1.000
    Si5529   Si       0.75727    0.75921    0.97176    1.000
    N5530    N        0.82827    0.72234    0.89190    1.000
    Si5531   Si       0.74605    0.72987    0.88676    1.000
    N5532    N        0.83845    0.77231    0.93737    1.000
    Si5533   Si       0.94079    0.73471    0.90576    1.000
    N5534    N        0.98087    0.73875    0.92482    1.000
    Si5535   Si       0.91021    0.74640    0.97175    1.000
    N5536    N        0.90817    0.75273    0.92894    1.000
    N5537    N        0.87869    0.71478    0.98239    1.000
    N5538    N        0.74055    0.72499    0.84406    1.000
    N5539    N        0.94344    0.77566    0.75535    1.000
    Si5540   Si       0.76681    0.79180    0.06392    1.000
    N5541    N        0.74779    0.81600    0.03282    1.000
    N5542    N        0.78679    0.82423    0.08744    1.000
    N5543    N        0.85946    0.81123    0.08863    1.000
    N5544    N        0.97207    0.79234    0.10787    1.000
    N5545    N        0.92167    0.81298    0.05750    1.000
    Si5546   Si       0.90320    0.81369    0.09797    1.000
    Si5547   Si       0.91683    0.77778    0.03423    1.000
    Si5548   Si       0.98456    0.77583    0.06732    1.000
    Si5549   Si       0.84188    0.82071    0.17371    1.000
    Si5550   Si       0.79907    0.79335    0.20653    1.000
    N5551    N        0.75783    0.80137    0.20697    1.000
    N5552    N        0.82468    0.77999    0.17219    1.000
    N5553    N        0.74818    0.81549    0.14188    1.000
    Si5554   Si       0.97137    0.78321    0.23851    1.000
    N5555    N        0.88340    0.81729    0.18141    1.000
    Si5556   Si       0.91195    0.80165    0.21044    1.000
    N5557    N        0.82218    0.82853    0.21250    1.000
    Si5558   Si       0.74024    0.77226    0.13331    1.000
    N5559    N        0.83932    0.78856    0.32838    1.000
    N5560    N        0.78601    0.80618    0.28463    1.000
    Si5561   Si       0.82013    0.82219    0.30862    1.000
    Si5562   Si       0.74664    0.82305    0.29674    1.000
    Si5563   Si       0.94496    0.78698    0.30250    1.000
    N5564    N        0.95597    0.81178    0.26798    1.000
    N5565    N        0.91140    0.80857    0.31739    1.000
    Si5566   Si       0.87969    0.80159    0.35028    1.000
    Si5567   Si       0.96958    0.82059    0.35872    1.000
    Si5568   Si       0.88809    0.82329    0.28154    1.000
    N5569    N        0.97408    0.78240    0.33595    1.000
    N5570    N        0.89154    0.79551    0.24873    1.000
    Si5571   Si       0.76951    0.80485    0.41670    1.000
    N5572    N        0.80889    0.79329    0.39991    1.000
    Si5573   Si       0.84052    0.81995    0.41349    1.000
    N5574    N        0.85008    0.81210    0.45379    1.000
    N5575    N        0.99082    0.78448    0.45430    1.000
    Si5576   Si       0.88631    0.79790    0.47567    1.000
    Si5577   Si       0.95710    0.81071    0.46907    1.000
    N5578    N        0.87910    0.80481    0.39574    1.000
    N5579    N        0.91872    0.81599    0.44948    1.000
    N5580    N        0.74121    0.82184    0.38968    1.000
    N5581    N        0.77804    0.80494    0.57964    1.000
    Si5582   Si       0.79981    0.79260    0.54198    1.000
    N5583    N        0.83714    0.79644    0.56298    1.000
    Si5584   Si       0.82976    0.78812    0.60609    1.000
    N5585    N        0.79568    0.81765    0.50690    1.000
    Si5586   Si       0.87041    0.82032    0.55322    1.000
    N5587    N        0.94404    0.79052    0.50504    1.000
    N5588    N        0.90466    0.80759    0.57679    1.000
    Si5589   Si       0.97418    0.80746    0.53461    1.000
    N5590    N        0.87218    0.81868    0.51029    1.000
    N5591    N        0.96709    0.81726    0.61377    1.000
    Si5592   Si       0.97154    0.77612    0.60417    1.000
    Si5593   Si       0.89853    0.79826    0.70495    1.000
    N5594    N        0.80882    0.80439    0.69991    1.000
    Si5595   Si       0.77185    0.81744    0.71779    1.000
    N5596    N        0.81849    0.82354    0.63316    1.000
    Si5597   Si       0.83450    0.82386    0.67241    1.000
    N5598    N        0.97956    0.81456    0.71166    1.000
    N5599    N        0.86795    0.79680    0.67592    1.000
    N5600    N        0.88007    0.80246    0.74574    1.000
    Si5601   Si       0.85071    0.81223    0.84861    1.000
    N5602    N        0.75843    0.79133    0.82943    1.000
    N5603    N        0.75316    0.80323    0.75591    1.000
    Si5604   Si       0.83958    0.80452    0.76134    1.000
    N5605    N        0.84162    0.81650    0.80587    1.000
    Si5606   Si       0.75689    0.82044    0.79584    1.000
    N5607    N        0.81420    0.82609    0.86740    1.000
    Si5608   Si       0.77482    0.80355    0.86879    1.000
    N5609    N        0.90215    0.78567    0.81288    1.000
    N5610    N        0.95823    0.81788    0.83734    1.000
    Si5611   Si       0.97206    0.78645    0.86611    1.000
    Si5612   Si       0.91616    0.82480    0.82437    1.000
    Si5613   Si       0.98078    0.79631    0.75173    1.000
    N5614    N        0.88937    0.81788    0.93133    1.000
    Si5615   Si       0.88874    0.82124    0.97613    1.000
    N5616    N        0.86012    0.77815    0.87379    1.000
    N5617    N        0.78347    0.79304    0.97419    1.000
    Si5618   Si       0.82608    0.78634    0.97540    1.000
    N5619    N        0.84645    0.82463    0.97872    1.000
    N5620    N        0.74929    0.82620    0.89193    1.000
    Si5621   Si       0.76384    0.82712    0.99342    1.000
    N5622    N        0.97606    0.80587    0.90491    1.000
    N5623    N        0.90329    0.78524    0.99207    1.000
    Si5624   Si       0.87516    0.77957    0.91568    1.000
    Si5625   Si       0.90275    0.77604    0.77218    1.000
    N5626    N        0.83632    0.87636    0.08531    1.000
    Si5627   Si       0.75571    0.84395    0.10838    1.000
    Si5628   Si       0.82643    0.83647    0.09925    1.000
    N5629    N        0.77277    0.88397    0.11774    1.000
    N5630    N        0.79273    0.85896    0.00010    1.000
    Si5631   Si       0.92928    0.85182    0.03824    1.000
    N5632    N        0.97456    0.86000    0.08724    1.000
    N5633    N        0.96894    0.84857    0.02096    1.000
    N5634    N        0.91295    0.87958    0.07051    1.000
    N5635    N        0.90195    0.85655    0.00203    1.000
    Si5636   Si       0.96620    0.83269    0.11933    1.000
    N5637    N        0.77221    0.87170    0.18423    1.000
    N5638    N        0.82146    0.84424    0.14150    1.000
    Si5639   Si       0.80047    0.88164    0.15328    1.000
    Si5640   Si       0.74924    0.83515    0.18085    1.000
    Si5641   Si       0.82842    0.85711    0.24487    1.000
    N5642    N        0.85851    0.88680    0.23570    1.000
    Si5643   Si       0.91212    0.84888    0.16695    1.000
    N5644    N        0.89790    0.88888    0.17541    1.000
    N5645    N        0.93856    0.83697    0.20111    1.000
    N5646    N        0.92469    0.83644    0.12800    1.000
    Si5647   Si       0.98066    0.83989    0.19494    1.000
    N5648    N        0.80953    0.85934    0.32758    1.000
    Si5649   Si       0.77449    0.87768    0.34072    1.000
    Si5650   Si       0.84658    0.88137    0.33796    1.000
    N5651    N        0.84831    0.83753    0.27806    1.000
    N5652    N        0.79508    0.88375    0.25510    1.000
    N5653    N        0.97439    0.85077    0.47245    1.000
    Si5654   Si       0.95352    0.85262    0.27919    1.000
    N5655    N        0.90981    0.86011    0.28365    1.000
    N5656    N        0.87436    0.84685    0.34589    1.000
    Si5657   Si       0.91797    0.85543    0.33739    1.000
    N5658    N        0.96364    0.84765    0.32243    1.000
    N5659    N        0.98194    0.88481    0.27422    1.000
    Si5660   Si       0.88013    0.88889    0.27393    1.000
    N5661    N        0.83035    0.86049    0.41449    1.000
    N5662    N        0.76561    0.88068    0.38222    1.000
    Si5663   Si       0.78790    0.87480    0.42049    1.000
    N5664    N        0.77570    0.83871    0.44517    1.000
    N5665    N        0.82963    0.87411    0.48962    1.000
    Si5666   Si       0.75985    0.83703    0.48603    1.000
    Si5667   Si       0.83281    0.83175    0.49029    1.000
    Si5668   Si       0.90866    0.83334    0.41149    1.000
    N5669    N        0.89817    0.87581    0.41720    1.000
    N5670    N        0.93339    0.83731    0.37676    1.000
    N5671    N        0.74107    0.86029    0.31887    1.000
    Si5672   Si       0.97677    0.89252    0.45966    1.000
    N5673    N        0.78899    0.88025    0.60474    1.000
    Si5674   Si       0.78181    0.83616    0.61045    1.000
    N5675    N        0.75081    0.87675    0.49957    1.000
    N5676    N        0.86772    0.86175    0.56056    1.000
    N5677    N        0.95801    0.84342    0.55371    1.000
    N5678    N        0.91677    0.86535    0.61336    1.000
    Si5679   Si       0.88125    0.88303    0.59621    1.000
    Si5680   Si       0.98080    0.87933    0.56206    1.000
    Si5681   Si       0.93462    0.83449    0.59092    1.000
    Si5682   Si       0.81450    0.87119    0.72210    1.000
    N5683    N        0.84346    0.86185    0.69223    1.000
    N5684    N        0.77248    0.86018    0.71026    1.000
    N5685    N        0.95608    0.88190    0.73145    1.000
    Si5686   Si       0.88386    0.87235    0.70208    1.000
    N5687    N        0.88200    0.88762    0.74382    1.000
    Si5688   Si       0.95724    0.84967    0.70096    1.000
    N5689    N        0.96385    0.86960    0.66272    1.000
    N5690    N        0.91403    0.84044    0.69901    1.000
    Si5691   Si       0.92851    0.88951    0.64715    1.000
    Si5692   Si       0.82013    0.85492    0.79759    1.000
    N5693    N        0.77982    0.85501    0.80822    1.000
    N5694    N        0.82072    0.84502    0.75515    1.000
    Si5695   Si       0.97115    0.84540    0.80538    1.000
    N5696    N        0.92951    0.84826    0.78984    1.000
    Si5697   Si       0.92251    0.87979    0.76031    1.000
    N5698    N        0.88765    0.83583    0.85552    1.000
    N5699    N        0.93217    0.86893    0.90121    1.000
    Si5700   Si       0.82045    0.86252    0.89162    1.000
    N5701    N        0.80126    0.85505    0.93105    1.000
    Si5702   Si       0.75798    0.85406    0.92902    1.000
    Si5703   Si       0.82220    0.85882    0.96826    1.000
    N5704    N        0.85970    0.87805    0.90017    1.000
    N5705    N        0.98109    0.86672    0.95024    1.000
    Si5706   Si       0.89310    0.84927    0.89692    1.000
    Si5707   Si       0.97050    0.84881    0.91027    1.000
    N5708    N        0.79926    0.91861    0.04335    1.000
    Si5709   Si       0.80150    0.90477    0.08558    1.000
    N5710    N        0.81009    0.94032    0.10683    1.000
    Si5711   Si       0.78111    0.90004    0.00848    1.000
    Si5712   Si       0.83432    0.94446    0.03404    1.000
    N5713    N        0.86621    0.91568    0.03711    1.000
    N5714    N        0.87760    0.92626    0.10612    1.000
    N5715    N        0.95037    0.93421    0.08755    1.000
    Si5716   Si       0.87286    0.89662    0.07553    1.000
    Si5717   Si       0.88170    0.89674    0.00005    1.000
    Si5718   Si       0.94540    0.89108    0.09692    1.000
    N5719    N        0.77223    0.93838    0.21043    1.000
    Si5720   Si       0.84545    0.93712    0.13313    1.000
    N5721    N        0.83253    0.90916    0.16465    1.000
    Si5722   Si       0.76894    0.89511    0.22051    1.000
    N5723    N        0.75297    0.94524    0.13979    1.000
    Si5724   Si       0.86273    0.90770    0.19604    1.000
    N5725    N        0.95616    0.89475    0.14005    1.000
    Si5726   Si       0.92933    0.91673    0.16658    1.000
    N5727    N        0.87894    0.94789    0.20548    1.000
    N5728    N        0.94155    0.93140    0.20427    1.000
    Si5729   Si       0.91150    0.94693    0.23318    1.000
    N5730    N        0.78131    0.91920    0.32124    1.000
    Si5731   Si       0.80707    0.91171    0.28732    1.000
    N5732    N        0.84920    0.90719    0.30148    1.000
    N5733    N        0.84754    0.90750    0.37271    1.000
    N5734    N        0.90058    0.92716    0.26977    1.000
    Si5735   Si       0.91759    0.93962    0.35622    1.000
    N5736    N        0.91881    0.89811    0.34355    1.000
    Si5737   Si       0.87263    0.94539    0.29866    1.000
    Si5738   Si       0.75253    0.91359    0.47479    1.000
    Si5739   Si       0.84448    0.91339    0.47816    1.000
    N5740    N        0.77937    0.91215    0.43920    1.000
    N5741    N        0.84436    0.92533    0.43467    1.000
    Si5742   Si       0.73931    0.92898    0.31107    1.000
    N5743    N        0.97312    0.89071    0.41527    1.000
    Si5744   Si       0.85848    0.89124    0.41207    1.000
    N5745    N        0.91589    0.94043    0.39982    1.000
    Si5746   Si       0.91379    0.93737    0.48677    1.000
    N5747    N        0.93889    0.91269    0.46253    1.000
    Si5748   Si       0.93169    0.90359    0.41882    1.000
    Si5749   Si       0.80448    0.94706    0.42927    1.000
    Si5750   Si       0.81861    0.91225    0.60327    1.000
    N5751    N        0.82791    0.91920    0.56063    1.000
    N5752    N        0.76105    0.93560    0.57073    1.000
    Si5753   Si       0.75054    0.89848    0.59477    1.000
    N5754    N        0.76347    0.94429    0.50593    1.000
    Si5755   Si       0.80133    0.94401    0.53871    1.000
    Si5756   Si       0.86455    0.90201    0.54105    1.000
    N5757    N        0.88035    0.91458    0.50116    1.000
    N5758    N        0.89411    0.91649    0.56999    1.000
    N5759    N        0.96238    0.91879    0.56124    1.000
    Si5760   Si       0.92928    0.93602    0.58728    1.000
    N5761    N        0.85543    0.90442    0.62461    1.000
    N5762    N        0.83852    0.94381    0.69063    1.000
    Si5763   Si       0.77464    0.92896    0.74267    1.000
    N5764    N        0.81260    0.90913    0.74602    1.000
    N5765    N        0.74065    0.92081    0.71371    1.000
    Si5766   Si       0.98128    0.91361    0.71783    1.000
    N5767    N        0.93975    0.92645    0.62718    1.000
    N5768    N        0.89809    0.90448    0.67536    1.000
    Si5769   Si       0.86573    0.92869    0.65998    1.000
    Si5770   Si       0.97225    0.95333    0.53657    1.000
    N5771    N        0.82421    0.94437    0.49939    1.000
    N5772    N        0.80541    0.95076    0.62009    1.000
    Si5773   Si       0.82740    0.91799    0.83645    1.000
    N5774    N        0.74971    0.92079    0.77791    1.000
    Si5775   Si       0.75801    0.93813    0.81614    1.000
    Si5776   Si       0.85204    0.91053    0.76572    1.000
    N5777    N        0.85997    0.94004    0.85808    1.000
    N5778    N        0.74249    0.91373    0.84928    1.000
    N5779    N        0.84181    0.89267    0.80489    1.000
    N5780    N        0.79784    0.94921    0.82518    1.000
    N5781    N        0.92914    0.91805    0.78132    1.000
    Si5782   Si       0.97067    0.92345    0.78932    1.000
    N5783    N        0.95657    0.92573    0.86765    1.000
    N5784    N        0.91259    0.92424    0.98978    1.000
    N5785    N        0.80538    0.89821    0.86949    1.000
    Si5786   Si       0.76766    0.91524    0.88426    1.000
    Si5787   Si       0.82320    0.93133    0.96281    1.000
    N5788    N        0.78286    0.92075    0.96847    1.000
    N5789    N        0.83423    0.94222    0.92322    1.000
    Si5790   Si       0.74101    0.92042    0.95089    1.000
    N5791    N        0.74970    0.89392    0.91692    1.000
    N5792    N        0.84573    0.89421    0.97427    1.000
    Si5793   Si       0.86155    0.92252    0.89802    1.000
    N5794    N        0.90168    0.93203    0.91377    1.000
    Si5795   Si       0.91854    0.94494    0.95316    1.000
    N5796    N        0.95794    0.92645    0.93877    1.000
    Si5797   Si       0.93861    0.91241    0.90404    1.000
    Si5798   Si       0.99026    0.90021    0.85406    1.000
    N5799    N        0.98131    0.88766    0.81307    1.000
    N5800    N        0.83046    0.98224    0.05518    1.000
    N5801    N        0.76191    0.98339    0.08000    1.000
    Si5802   Si       0.78165    0.97012    0.11724    1.000
    Si5803   Si       0.79204    0.00482    0.05853    1.000
    N5804    N        0.90139    0.98651    0.08432    1.000
    N5805    N        0.96571    0.99713    0.10690    1.000
    Si5806   Si       0.98089    0.96272    0.08612    1.000
    Si5807   Si       0.91459    0.95125    0.10557    1.000
    N5808    N        0.92102    0.95383    0.14914    1.000
    N5809    N        0.75671    0.00249    0.24025    1.000
    N5810    N        0.85781    0.97668    0.14663    1.000
    Si5811   Si       0.74642    0.95727    0.18085    1.000
    N5812    N        0.74447    0.99894    0.17651    1.000
    N5813    N        0.79813    0.00632    0.13679    1.000
    Si5814   Si       0.97932    0.95071    0.19989    1.000
    N5815    N        0.97386    0.99405    0.19503    1.000
    Si5816   Si       0.89015    0.97765    0.17426    1.000
    Si5817   Si       0.86520    0.00427    0.06781    1.000
    Si5818   Si       0.77205    0.96146    0.24583    1.000
    N5819    N        0.92345    0.98622    0.24650    1.000
    N5820    N        0.98786    0.97258    0.04210    1.000
    Si5821   Si       0.82219    0.99060    0.28490    1.000
    Si5822   Si       0.78569    0.96007    0.34401    1.000
    N5823    N        0.80664    0.99354    0.32617    1.000
    N5824    N        0.74235    0.96622    0.33758    1.000
    N5825    N        0.80564    0.95363    0.27209    1.000
    N5826    N        0.98523    0.00383    0.29607    1.000
    N5827    N        0.86475    0.98146    0.27712    1.000
    N5828    N        0.95314    0.95985    0.33988    1.000
    Si5829   Si       0.94945    0.99926    0.32231    1.000
    N5830    N        0.88028    0.95495    0.34018    1.000
    N5831    N        0.93090    0.00789    0.41260    1.000
    Si5832   Si       0.84998    0.95109    0.37508    1.000
    N5833    N        0.78843    0.98488    0.45200    1.000
    Si5834   Si       0.79258    0.97477    0.49332    1.000
    N5835    N        0.80625    0.95714    0.38338    1.000
    N5836    N        0.90589    0.97279    0.46437    1.000
    N5837    N        0.86650    0.98348    0.40008    1.000
    Si5838   Si       0.90317    0.97566    0.42118    1.000
    Si5839   Si       0.96697    0.01061    0.43982    1.000
    N5840    N        0.79864    0.98942    0.53370    1.000
    N5841    N        0.75412    0.99639    0.60732    1.000
    Si5842   Si       0.76465    0.95552    0.61207    1.000
    N5843    N        0.96585    0.94824    0.69484    1.000
    N5844    N        0.91610    0.97792    0.58960    1.000
    N5845    N        0.93455    0.96044    0.51720    1.000
    N5846    N        0.98062    0.98166    0.56834    1.000
    Si5847   Si       0.94455    0.00607    0.57399    1.000
    N5848    N        0.93935    0.99417    0.64932    1.000
    N5849    N        0.83827    0.00481    0.73442    1.000
    Si5850   Si       0.75409    0.00234    0.73206    1.000
    N5851    N        0.80523    0.99900    0.67390    1.000
    N5852    N        0.78313    0.97049    0.73368    1.000
    Si5853   Si       0.81810    0.97694    0.70880    1.000
    Si5854   Si       0.82763    0.98456    0.63855    1.000
    Si5855   Si       0.96134    0.95579    0.65229    1.000
    Si5856   Si       0.97358    0.97792    0.72694    1.000
    Si5857   Si       0.90173    0.99582    0.62588    1.000
    N5858    N        0.87034    0.97115    0.64034    1.000
    Si5859   Si       0.92179    0.00228    0.49604    1.000
    Si5860   Si       0.80898    0.98868    0.83638    1.000
    N5861    N        0.84546    0.99535    0.81560    1.000
    Si5862   Si       0.85736    0.99048    0.77183    1.000
    N5863    N        0.82331    0.99653    0.87517    1.000
    Si5864   Si       0.87555    0.97973    0.84463    1.000
    Si5865   Si       0.94703    0.96181    0.84439    1.000
    N5866    N        0.91099    0.96785    0.82278    1.000
    Si5867   Si       0.91007    0.95771    0.77869    1.000
    N5868    N        0.97939    0.95754    0.81673    1.000
    N5869    N        0.95507    0.00063    0.86523    1.000
    N5870    N        0.93639    0.97838    0.74892    1.000
    Si5871   Si       0.80854    0.97280    0.90730    1.000
    N5872    N        0.79075    0.99584    0.93920    1.000
    N5873    N        0.76890    0.95574    0.89706    1.000
    Si5874   Si       0.75144    0.98658    0.92324    1.000
    N5875    N        0.83820    0.96106    0.99290    1.000
    N5876    N        0.96755    0.00260    0.98574    1.000
    N5877    N        0.90253    0.98437    0.96533    1.000
    Si5878   Si       0.86362    0.99607    0.98860    1.000
    N5879    N        0.86993    0.94983    0.76766    1.000
