# CIF file generated by openbabel 3.1.1, see https://openbabel.org
data_I
_chemical_name_common '3.01-34.aims'
_cell_length_a 39.8425
_cell_length_b 39.8425
_cell_length_c 39.8425
_cell_angle_alpha 90
_cell_angle_beta 90
_cell_angle_gamma 90
loop_
    _atom_site_label
    _atom_site_type_symbol
    _atom_site_fract_x
    _atom_site_fract_y
    _atom_site_fract_z
    _atom_site_occupancy
    N0       N        0.05277    0.04203    0.04768    1.000
    Si1      Si       0.08661    0.01279    0.04931    1.000
    N2       N        0.11244    0.02603    0.01870    1.000
    Si3      Si       0.03352    0.06683    0.01684    1.000
    Si4      Si       0.14463    0.01974    0.09548    1.000
    N5       N        0.22185    0.04347    0.07000    1.000
    N6       N        0.14065    0.05777    0.07501    1.000
    Si7      Si       0.14177    0.05629    0.03116    1.000
    N8       N        0.18202    0.05518    0.01757    1.000
    Si9      Si       0.23841    0.05644    0.10687    1.000
    Si10     Si       0.21928    0.06623    0.03554    1.000
    N11      N        0.03601    0.02863    0.23669    1.000
    N12      N        0.08825    0.04669    0.13832    1.000
    Si13     Si       0.00882    0.04472    0.20551    1.000
    N14      N        0.01211    0.04671    0.16264    1.000
    Si15     Si       0.00217    0.01809    0.13257    1.000
    N16      N        0.16768    0.06282    0.18898    1.000
    Si17     Si       0.18880    0.03464    0.16166    1.000
    N18      N        0.12229    0.01996    0.19724    1.000
    Si19     Si       0.12503    0.05198    0.16507    1.000
    Si20     Si       0.16055    0.02793    0.21620    1.000
    N21      N        0.22600    0.02694    0.13818    1.000
    N22      N        0.15305    0.02939    0.13709    1.000
    N23      N        0.00679    0.04058    0.29854    1.000
    N24      N        0.07676    0.04880    0.33515    1.000
    N25      N        0.10196    0.04245    0.26427    1.000
    Si26     Si       0.03345    0.05296    0.33106    1.000
    N27      N        0.02338    0.02579    0.36477    1.000
    Si28     Si       0.99850    0.01921    0.26031    1.000
    Si29     Si       0.08992    0.00980    0.32093    1.000
    Si30     Si       0.07488    0.01175    0.24747    1.000
    N31      N        0.17231    0.02849    0.25563    1.000
    Si32     Si       0.14268    0.03804    0.28592    1.000
    Si33     Si       0.20197    0.04493    0.33716    1.000
    Si34     Si       0.21473    0.02469    0.26603    1.000
    N35      N        0.22842    0.02336    0.30951    1.000
    N36      N        0.16529    0.06038    0.31526    1.000
    N37      N        0.23492    0.05855    0.24734    1.000
    Si38     Si       0.00357    0.03587    0.40226    1.000
    N39      N        0.03842    0.03964    0.42964    1.000
    N40      N        0.06551    0.00986    0.48893    1.000
    N41      N        0.11502    0.03918    0.39736    1.000
    N42      N        0.19448    0.01221    0.49753    1.000
    N43      N        0.20032    0.01889    0.37149    1.000
    Si44     Si       0.15563    0.02356    0.47994    1.000
    N45      N        0.03303    0.03328    0.59354    1.000
    N46      N        0.07029    0.06297    0.53625    1.000
    Si47     Si       0.08352    0.04950    0.49826    1.000
    Si48     Si       0.11580    0.02201    0.55023    1.000
    N49      N        0.12591    0.05581    0.57354    1.000
    N50      N        0.12266    0.03124    0.50867    1.000
    Si51     Si       0.23496    0.01791    0.61206    1.000
    Si52     Si       0.12609    0.05807    0.61717    1.000
    Si53     Si       0.22236    0.04587    0.50238    1.000
    N54      N        0.99612    0.03769    0.70447    1.000
    Si55     Si       0.10332    0.05527    0.73925    1.000
    N56      N        0.05445    0.02059    0.66192    1.000
    Si57     Si       0.06656    0.06285    0.66511    1.000
    Si58     Si       0.01639    0.00779    0.67787    1.000
    N59      N        0.19964    0.03006    0.63441    1.000
    Si60     Si       0.16450    0.02388    0.71579    1.000
    N61      N        0.12624    0.02149    0.64098    1.000
    N62      N        0.12724    0.01868    0.73766    1.000
    N63      N        0.20299    0.02491    0.73629    1.000
    N64      N        0.16663    0.06148    0.69292    1.000
    Si65     Si       0.18682    0.06536    0.65554    1.000
    N66      N        0.05810    0.05619    0.83709    1.000
    N67      N        0.06923    0.05989    0.76777    1.000
    N68      N        0.99293    0.05136    0.78224    1.000
    Si69     Si       0.08648    0.06709    0.80678    1.000
    N70      N        0.12119    0.04157    0.81871    1.000
    Si71     Si       0.22868    0.04497    0.85694    1.000
    Si72     Si       0.14796    0.04385    0.85360    1.000
    N73      N        0.18823    0.05856    0.84520    1.000
    Si74     Si       0.07012    0.06284    0.95452    1.000
    N75      N        0.09231    0.02653    0.94812    1.000
    Si76     Si       0.01497    0.02685    0.94999    1.000
    N77      N        0.03545    0.06027    0.92935    1.000
    N78      N        0.03424    0.03127    0.98825    1.000
    Si79     Si       0.11230    0.01662    0.90805    1.000
    N80      N        0.22878    0.05460    0.89863    1.000
    N81      N        0.12465    0.05351    0.88916    1.000
    Si82     Si       0.19212    0.04708    0.97598    1.000
    N83      N        0.22059    0.01753    0.95850    1.000
    Si84     Si       0.11947    0.01080    0.97832    1.000
    N85      N        0.15879    0.02056    0.96496    1.000
    N86      N        0.08333    0.10458    0.08902    1.000
    N87      N        0.03079    0.10836    0.03474    1.000
    Si88     Si       0.05304    0.12824    0.06461    1.000
    N89      N        0.12101    0.09415    0.02554    1.000
    Si90     Si       0.20150    0.11649    0.08551    1.000
    Si91     Si       0.12240    0.09848    0.06994    1.000
    N92      N        0.21930    0.10783    0.04593    1.000
    N93      N        0.22324    0.09560    0.11737    1.000
    N94      N        0.15588    0.12235    0.08486    1.000
    Si95     Si       0.08257    0.08880    0.12876    1.000
    Si96     Si       0.10209    0.12033    0.19208    1.000
    N97      N        0.08146    0.09605    0.22161    1.000
    N98      N        0.04885    0.10605    0.14732    1.000
    Si99     Si       0.01350    0.09075    0.16519    1.000
    N100     N        0.01115    0.08839    0.20954    1.000
    Si101    Si       0.04033    0.10637    0.23574    1.000
    N102     N        0.11518    0.09460    0.15918    1.000
    Si103    Si       0.17452    0.10282    0.20256    1.000
    N104     N        0.18532    0.10468    0.24445    1.000
    Si105    Si       0.23352    0.10683    0.16021    1.000
    N106     N        0.05232    0.09943    0.27703    1.000
    N107     N        0.01521    0.09227    0.33841    1.000
    Si108    Si       0.09203    0.08423    0.26402    1.000
    Si109    Si       0.03081    0.12170    0.30776    1.000
    Si110    Si       0.09692    0.06896    0.36911    1.000
    N111     N        0.11968    0.10174    0.35298    1.000
    N112     N        0.12732    0.10467    0.27969    1.000
    N113     N        0.21715    0.08429    0.34834    1.000
    Si114    Si       0.14713    0.09945    0.31872    1.000
    Si115    Si       0.21407    0.11951    0.32493    1.000
    Si116    Si       0.22786    0.10202    0.25298    1.000
    N117     N        0.24052    0.11254    0.29222    1.000
    Si118    Si       0.99403    0.10796    0.37401    1.000
    N119     N        0.08916    0.07287    0.46335    1.000
    Si120    Si       0.05765    0.07772    0.43549    1.000
    N121     N        0.06592    0.08817    0.39421    1.000
    N122     N        0.02561    0.10495    0.45421    1.000
    N123     N        0.20247    0.10237    0.41924    1.000
    Si124    Si       0.22782    0.10747    0.38306    1.000
    Si125    Si       0.23914    0.09507    0.44529    1.000
    Si126    Si       0.12755    0.09296    0.47058    1.000
    N127     N        0.13474    0.12493    0.44248    1.000
    N128     N        0.15916    0.06597    0.46914    1.000
    N129     N        0.03716    0.10644    0.58705    1.000
    Si130    Si       0.07517    0.11458    0.60909    1.000
    N131     N        0.10588    0.12653    0.57920    1.000
    Si132    Si       0.03828    0.06809    0.56667    1.000
    N133     N        0.00211    0.06261    0.54140    1.000
    N134     N        0.11995    0.11147    0.50981    1.000
    Si135    Si       0.12445    0.09557    0.55154    1.000
    N136     N        0.21850    0.11348    0.59265    1.000
    Si137    Si       0.20953    0.11477    0.54908    1.000
    Si138    Si       0.17683    0.11627    0.60411    1.000
    N139     N        0.16779    0.10794    0.55916    1.000
    N140     N        0.22391    0.07768    0.53298    1.000
    N141     N        0.03170    0.08904    0.66905    1.000
    N142     N        0.08957    0.07678    0.62860    1.000
    N143     N        0.01871    0.09894    0.73797    1.000
    Si144    Si       0.00255    0.08123    0.70060    1.000
    N145     N        0.09157    0.06377    0.69950    1.000
    Si146    Si       0.22721    0.11082    0.69852    1.000
    N147     N        0.22113    0.09036    0.65984    1.000
    N148     N        0.19578    0.10364    0.72798    1.000
    Si149    Si       0.15545    0.09861    0.71316    1.000
    N150     N        0.15924    0.08510    0.62920    1.000
    Si151    Si       0.21551    0.06623    0.74349    1.000
    N152     N        0.09674    0.11002    0.80401    1.000
    N153     N        0.02958    0.10494    0.80635    1.000
    Si154    Si       0.02660    0.08493    0.84569    1.000
    Si155    Si       0.02866    0.07500    0.77377    1.000
    N156     N        0.17040    0.11766    0.79982    1.000
    Si157    Si       0.20221    0.09242    0.82262    1.000
    N158     N        0.22152    0.08627    0.78219    1.000
    Si159    Si       0.13159    0.11934    0.78077    1.000
    N160     N        0.22305    0.12163    0.85043    1.000
    N161     N        0.13150    0.08915    0.74880    1.000
    Si162    Si       0.19943    0.12302    0.76856    1.000
    N163     N        0.04270    0.10904    0.87794    1.000
    Si164    Si       0.02584    0.09969    0.91536    1.000
    N165     N        0.06019    0.09042    0.98664    1.000
    Si166    Si       0.10245    0.10671    0.98915    1.000
    Si167    Si       0.02988    0.12497    0.98862    1.000
    N168     N        0.11152    0.08880    0.95084    1.000
    N169     N        0.11354    0.12400    0.88546    1.000
    Si170    Si       0.21945    0.12673    0.96270    1.000
    Si171    Si       0.12843    0.09007    0.91054    1.000
    Si172    Si       0.20836    0.09164    0.91345    1.000
    N173     N        0.20467    0.08547    0.95876    1.000
    N174     N        0.16877    0.10682    0.90767    1.000
    N175     N        0.23572    0.12654    0.92108    1.000
    N176     N        0.07861    0.16014    0.04841    1.000
    N177     N        0.02403    0.14696    0.09170    1.000
    Si178    Si       0.07976    0.17309    0.00793    1.000
    N179     N        0.08102    0.16492    0.11768    1.000
    N180     N        0.03624    0.16680    0.00080    1.000
    Si181    Si       0.08945    0.18721    0.08154    1.000
    Si182    Si       0.15923    0.16259    0.10045    1.000
    N183     N        0.20712    0.15950    0.09697    1.000
    N184     N        0.22772    0.17361    0.03140    1.000
    N185     N        0.03505    0.14860    0.22327    1.000
    N186     N        0.08655    0.16000    0.18154    1.000
    Si187    Si       0.04389    0.14640    0.13063    1.000
    Si188    Si       0.04760    0.17521    0.19273    1.000
    N189     N        0.02298    0.17270    0.15735    1.000
    Si190    Si       0.10623    0.18063    0.14986    1.000
    N191     N        0.19774    0.12634    0.17318    1.000
    Si192    Si       0.23494    0.16708    0.12932    1.000
    N193     N        0.13915    0.12950    0.21297    1.000
    N194     N        0.14824    0.16889    0.14307    1.000
    Si195    Si       0.18027    0.16724    0.17153    1.000
    N196     N        0.00690    0.15074    0.28497    1.000
    N197     N        0.05793    0.14334    0.33356    1.000
    Si198    Si       0.02889    0.17426    0.25669    1.000
    Si199    Si       0.07653    0.17841    0.31515    1.000
    N200     N        0.07051    0.18089    0.27139    1.000
    N201     N        0.11808    0.17037    0.33001    1.000
    Si202    Si       0.15869    0.17306    0.31251    1.000
    N203     N        0.22819    0.14600    0.35905    1.000
    N204     N        0.15754    0.17102    0.26848    1.000
    N205     N        0.17298    0.13275    0.31955    1.000
    Si206    Si       0.12598    0.14635    0.36570    1.000
    Si207    Si       0.15205    0.13127    0.25438    1.000
    Si208    Si       0.19902    0.17696    0.37011    1.000
    Si209    Si       0.06019    0.12963    0.37640    1.000
    N210     N        0.07866    0.15292    0.46810    1.000
    N211     N        0.09230    0.15054    0.39371    1.000
    Si212    Si       0.03719    0.14287    0.47296    1.000
    Si213    Si       0.10464    0.15492    0.43382    1.000
    N214     N        0.02047    0.13920    0.39020    1.000
    N215     N        0.01676    0.17584    0.45246    1.000
    Si216    Si       0.01025    0.17521    0.40898    1.000
    Si217    Si       0.22610    0.15698    0.48376    1.000
    N218     N        0.16597    0.15190    0.38514    1.000
    N219     N        0.19234    0.15875    0.45407    1.000
    Si220    Si       0.17318    0.13240    0.42524    1.000
    Si221    Si       0.01218    0.14312    0.59246    1.000
    N222     N        0.02365    0.14740    0.51421    1.000
    N223     N        0.08830    0.17390    0.53511    1.000
    N224     N        0.03628    0.17959    0.57905    1.000
    Si225    Si       0.10672    0.15308    0.50288    1.000
    Si226    Si       0.04441    0.18032    0.53628    1.000
    Si227    Si       0.10915    0.16904    0.57362    1.000
    N228     N        0.22002    0.14993    0.52533    1.000
    N229     N        0.15230    0.17840    0.57247    1.000
    N230     N        0.14507    0.17603    0.50046    1.000
    Si231    Si       0.23240    0.18449    0.54590    1.000
    Si232    Si       0.09266    0.17953    0.64780    1.000
    Si233    Si       0.03389    0.13309    0.66339    1.000
    N234     N        0.07239    0.14107    0.64395    1.000
    N235     N        0.03196    0.15508    0.70090    1.000
    N236     N        0.00111    0.14316    0.63607    1.000
    Si237    Si       0.02323    0.14178    0.74115    1.000
    Si238    Si       0.16524    0.16221    0.66788    1.000
    Si239    Si       0.13498    0.17532    0.72110    1.000
    N240     N        0.17159    0.15156    0.62746    1.000
    N241     N        0.20676    0.15954    0.68686    1.000
    Si242    Si       0.21095    0.18402    0.72319    1.000
    N243     N        0.14337    0.13804    0.69847    1.000
    N244     N        0.06895    0.16166    0.83987    1.000
    N245     N        0.05749    0.15698    0.76688    1.000
    Si246    Si       0.06096    0.13613    0.80436    1.000
    Si247    Si       0.09065    0.18478    0.76669    1.000
    N248     N        0.12812    0.15950    0.76388    1.000
    Si249    Si       0.21215    0.16210    0.85257    1.000
    N250     N        0.22097    0.15736    0.75579    1.000
    N251     N        0.21889    0.18378    0.81574    1.000
    N252     N        0.17155    0.17038    0.86571    1.000
    Si253    Si       0.07492    0.13890    0.87679    1.000
    Si254    Si       0.03513    0.17425    0.93154    1.000
    N255     N        0.07171    0.17114    0.90981    1.000
    N256     N        0.03120    0.13326    0.94467    1.000
    N257     N        0.11059    0.14862    0.98514    1.000
    Si258    Si       0.14776    0.16763    0.97184    1.000
    Si259    Si       0.14901    0.14687    0.89582    1.000
    N260     N        0.18948    0.15654    0.97251    1.000
    N261     N        0.13960    0.17270    0.92864    1.000
    N262     N        0.06616    0.22519    0.08785    1.000
    N263     N        0.02708    0.23932    0.02520    1.000
    N264     N        0.99750    0.22780    0.08930    1.000
    N265     N        0.09346    0.21184    0.99814    1.000
    Si266    Si       0.03125    0.24278    0.06818    1.000
    Si267    Si       0.01526    0.20516    0.99743    1.000
    Si268    Si       0.15812    0.22851    0.07779    1.000
    N269     N        0.20044    0.22022    0.07765    1.000
    Si270    Si       0.13030    0.22809    0.01371    1.000
    N271     N        0.13432    0.19264    0.07954    1.000
    Si272    Si       0.23078    0.19003    0.07137    1.000
    Si273    Si       0.20098    0.18877    0.00121    1.000
    N274     N        0.15959    0.24386    0.11886    1.000
    Si275    Si       0.99212    0.24386    0.24561    1.000
    N276     N        0.05664    0.21136    0.21386    1.000
    N277     N        0.09863    0.22347    0.15315    1.000
    Si278    Si       0.08632    0.21177    0.24369    1.000
    Si279    Si       0.07439    0.24628    0.12666    1.000
    N280     N        0.99721    0.20113    0.24127    1.000
    N281     N        0.12421    0.21867    0.22191    1.000
    Si282    Si       0.21923    0.21429    0.19954    1.000
    N283     N        0.18450    0.18985    0.20896    1.000
    Si284    Si       0.16025    0.20462    0.24197    1.000
    N285     N        0.22750    0.22577    0.24286    1.000
    N286     N        0.20967    0.19446    0.15109    1.000
    Si287    Si       0.19957    0.23546    0.13669    1.000
    N288     N        0.05086    0.21379    0.32252    1.000
    Si289    Si       0.01162    0.21311    0.34230    1.000
    N290     N        0.09183    0.24369    0.27155    1.000
    N291     N        0.16739    0.23814    0.27217    1.000
    Si292    Si       0.16586    0.24103    0.35284    1.000
    N293     N        0.18119    0.20025    0.33909    1.000
    N294     N        0.02442    0.20764    0.38417    1.000
    Si295    Si       0.99814    0.20347    0.48452    1.000
    Si296    Si       0.04809    0.24089    0.39885    1.000
    N297     N        0.09068    0.24135    0.39242    1.000
    N298     N        0.12775    0.19196    0.43626    1.000
    Si299    Si       0.12293    0.23292    0.42017    1.000
    Si300    Si       0.19726    0.23423    0.41938    1.000
    N301     N        0.15929    0.23712    0.39670    1.000
    Si302    Si       0.16275    0.18737    0.46214    1.000
    N303     N        0.21969    0.20551    0.39528    1.000
    Si304    Si       0.21487    0.22969    0.49055    1.000
    N305     N        0.18491    0.22397    0.45851    1.000
    N306     N        0.02878    0.21331    0.51321    1.000
    Si307    Si       0.05685    0.21449    0.59548    1.000
    N308     N        0.09284    0.19255    0.60624    1.000
    N309     N        0.06794    0.23924    0.56175    1.000
    N310     N        0.02670    0.24231    0.61301    1.000
    N311     N        0.20260    0.21200    0.52874    1.000
    Si312    Si       0.16159    0.19738    0.53535    1.000
    N313     N        0.13899    0.23374    0.53848    1.000
    Si314    Si       0.18036    0.18772    0.60569    1.000
    N315     N        0.22145    0.18757    0.58869    1.000
    N316     N        0.05658    0.20410    0.66329    1.000
    N317     N        0.02519    0.22053    0.72123    1.000
    Si318    Si       0.02325    0.23034    0.65722    1.000
    Si319    Si       0.05535    0.19232    0.70566    1.000
    N320     N        0.09437    0.19212    0.72333    1.000
    Si321    Si       0.17834    0.23973    0.73728    1.000
    Si322    Si       0.14670    0.23431    0.65540    1.000
    N323     N        0.12998    0.19318    0.66474    1.000
    N324     N        0.17950    0.22329    0.62940    1.000
    N325     N        0.17084    0.19964    0.72321    1.000
    N326     N        0.09572    0.21304    0.80010    1.000
    N327     N        0.04939    0.22702    0.85288    1.000
    Si328    Si       0.08109    0.20387    0.83898    1.000
    N329     N        0.11316    0.19925    0.86923    1.000
    Si330    Si       0.20209    0.22356    0.81127    1.000
    N331     N        0.15919    0.22637    0.82065    1.000
    Si332    Si       0.15395    0.21036    0.86193    1.000
    N333     N        0.20805    0.23173    0.76794    1.000
    Si334    Si       0.12796    0.24278    0.79643    1.000
    N335     N        0.14068    0.24730    0.75607    1.000
    N336     N        0.22651    0.24691    0.83883    1.000
    Si337    Si       0.10605    0.19636    0.91275    1.000
    N338     N        0.02894    0.21128    0.95579    1.000
    N339     N        0.10093    0.23474    0.93046    1.000
    Si340    Si       0.01434    0.21997    0.87952    1.000
    Si341    Si       0.08942    0.24559    0.97135    1.000
    N342     N        0.00390    0.18533    0.90357    1.000
    N343     N        0.22461    0.22522    0.99027    1.000
    N344     N        0.22743    0.24272    0.90792    1.000
    N345     N        0.15830    0.19902    0.00116    1.000
    N346     N        0.08223    0.28133    0.03275    1.000
    N347     N        0.03844    0.28491    0.08477    1.000
    Si348    Si       0.04355    0.27668    0.00839    1.000
    N349     N        0.09846    0.27921    0.11134    1.000
    Si350    Si       0.07892    0.29661    0.07391    1.000
    Si351    Si       0.12581    0.29004    0.02425    1.000
    N352     N        0.22124    0.27627    0.03806    1.000
    Si353    Si       0.22710    0.25493    0.07706    1.000
    N354     N        0.23002    0.26322    0.12013    1.000
    N355     N        0.14575    0.25185    0.04455    1.000
    Si356    Si       0.00054    0.25443    0.12587    1.000
    N357     N        0.00882    0.26463    0.21155    1.000
    N358     N        0.08246    0.27400    0.19984    1.000
    Si359    Si       0.04564    0.25015    0.19412    1.000
    N360     N        0.03706    0.25002    0.14892    1.000
    Si361    Si       0.99171    0.30268    0.20238    1.000
    Si362    Si       0.11531    0.24501    0.18940    1.000
    N363     N        0.20885    0.25204    0.17963    1.000
    Si364    Si       0.18205    0.28412    0.19729    1.000
    Si365    Si       0.13791    0.27799    0.13193    1.000
    Si366    Si       0.23412    0.28630    0.15857    1.000
    N367     N        0.19099    0.28982    0.23971    1.000
    N368     N        0.14442    0.27328    0.17635    1.000
    N369     N        0.07499    0.27948    0.31910    1.000
    Si370    Si       0.09520    0.26734    0.35614    1.000
    N371     N        0.02008    0.25903    0.27514    1.000
    Si372    Si       0.05662    0.24751    0.29640    1.000
    N373     N        0.99298    0.25224    0.33346    1.000
    Si374    Si       0.13117    0.25404    0.28781    1.000
    Si375    Si       0.20629    0.25765    0.26389    1.000
    N376     N        0.18589    0.27985    0.34883    1.000
    N377     N        0.13736    0.29673    0.28841    1.000
    N378     N        0.12840    0.24772    0.33211    1.000
    Si379    Si       0.99367    0.27351    0.37039    1.000
    N380     N        0.03536    0.27640    0.38000    1.000
    N381     N        0.04316    0.25128    0.44213    1.000
    Si382    Si       0.00455    0.26762    0.45684    1.000
    Si383    Si       0.07695    0.27030    0.46457    1.000
    N384     N        0.11832    0.26188    0.45390    1.000
    N385     N        0.01201    0.27505    0.49907    1.000
    N386     N        0.17902    0.30438    0.45988    1.000
    Si387    Si       0.20908    0.29614    0.38270    1.000
    Si388    Si       0.21154    0.29683    0.48973    1.000
    Si389    Si       0.14683    0.28154    0.48054    1.000
    N390     N        0.22189    0.26970    0.41384    1.000
    N391     N        0.23764    0.26309    0.47876    1.000
    Si392    Si       0.03021    0.28486    0.60031    1.000
    N393     N        0.01822    0.28306    0.55951    1.000
    Si394    Si       0.10199    0.25411    0.53969    1.000
    Si395    Si       0.03801    0.25505    0.52887    1.000
    N396     N        0.07601    0.26411    0.50680    1.000
    Si397    Si       0.11020    0.28646    0.60500    1.000
    Si398    Si       0.98870    0.29400    0.52962    1.000
    N399     N        0.07064    0.30246    0.60599    1.000
    N400     N        0.12253    0.28590    0.56275    1.000
    Si401    Si       0.16236    0.26971    0.55372    1.000
    N402     N        0.18747    0.27681    0.59059    1.000
    N403     N        0.17833    0.27506    0.51295    1.000
    Si404    Si       0.20915    0.25629    0.62086    1.000
    N405     N        0.02009    0.26795    0.67681    1.000
    Si406    Si       0.03931    0.26082    0.71532    1.000
    N407     N        0.08117    0.26487    0.71074    1.000
    Si408    Si       0.12065    0.26731    0.72286    1.000
    Si409    Si       0.18223    0.28831    0.68683    1.000
    N410     N        0.11735    0.25392    0.63091    1.000
    N411     N        0.20527    0.27115    0.72032    1.000
    N412     N        0.15014    0.25775    0.69168    1.000
    N413     N        0.21166    0.28092    0.65515    1.000
    Si414    Si       0.99377    0.26855    0.76679    1.000
    N415     N        0.02785    0.28846    0.74506    1.000
    N416     N        0.09646    0.27375    0.87228    1.000
    N417     N        0.03116    0.30464    0.85929    1.000
    N418     N        0.23363    0.29669    0.78131    1.000
    N419     N        0.12279    0.28618    0.80537    1.000
    Si420    Si       0.23379    0.26426    0.75292    1.000
    Si421    Si       0.23733    0.28697    0.82285    1.000
    Si422    Si       0.05260    0.26751    0.87038    1.000
    N423     N        0.05624    0.27486    0.96612    1.000
    Si424    Si       0.02221    0.25272    0.94536    1.000
    N425     N        0.02762    0.25329    0.90316    1.000
    N426     N        0.12411    0.26607    0.98680    1.000
    Si427    Si       0.15428    0.28945    0.96610    1.000
    N428     N        0.13208    0.29783    0.92999    1.000
    N429     N        0.15778    0.24415    0.88987    1.000
    N430     N        0.18327    0.26277    0.94860    1.000
    Si431    Si       0.19087    0.26454    0.90627    1.000
    Si432    Si       0.22884    0.24749    0.95302    1.000
    Si433    Si       0.12121    0.26312    0.90625    1.000
    N434     N        0.06299    0.33818    0.06442    1.000
    Si435    Si       0.01524    0.32360    0.09483    1.000
    N436     N        0.99652    0.34322    0.05980    1.000
    Si437    Si       0.03218    0.34470    0.03347    1.000
    N438     N        0.02439    0.31622    0.00234    1.000
    Si439    Si       0.10011    0.36029    0.06652    1.000
    N440     N        0.22680    0.34311    0.00830    1.000
    N441     N        0.12319    0.31870    0.06034    1.000
    Si442    Si       0.15815    0.33092    0.08184    1.000
    N443     N        0.19797    0.33346    0.06471    1.000
    Si444    Si       0.20221    0.31259    0.02571    1.000
    Si445    Si       0.22703    0.35551    0.08725    1.000
    N446     N        0.16446    0.31219    0.00363    1.000
    N447     N        0.16071    0.31056    0.11920    1.000
    N448     N        0.02334    0.35840    0.12275    1.000
    Si449    Si       0.09706    0.31251    0.21424    1.000
    N450     N        0.02002    0.33083    0.18611    1.000
    N451     N        0.08560    0.35404    0.19667    1.000
    Si452    Si       0.04660    0.34482    0.21676    1.000
    Si453    Si       0.99778    0.35635    0.15691    1.000
    N454     N        0.07050    0.31738    0.24860    1.000
    N455     N        0.20343    0.31405    0.17243    1.000
    Si456    Si       0.18116    0.33926    0.14702    1.000
    N457     N        0.13803    0.32737    0.22070    1.000
    N458     N        0.14371    0.36178    0.15768    1.000
    N459     N        0.03470    0.33854    0.34139    1.000
    N460     N        0.09330    0.35023    0.30357    1.000
    Si461    Si       0.08992    0.31049    0.28870    1.000
    Si462    Si       0.99192    0.34123    0.33654    1.000
    N463     N        0.09305    0.30772    0.37458    1.000
    N464     N        0.22283    0.36166    0.25358    1.000
    Si465    Si       0.16330    0.30861    0.32214    1.000
    Si466    Si       0.16170    0.31986    0.25690    1.000
    N467     N        0.19826    0.32989    0.30764    1.000
    N468     N        0.14605    0.33654    0.35095    1.000
    Si469    Si       0.23658    0.30984    0.31520    1.000
    Si470    Si       0.05063    0.31557    0.37552    1.000
    Si471    Si       0.10109    0.33859    0.47010    1.000
    N472     N        0.06515    0.31248    0.46076    1.000
    Si473    Si       0.02838    0.33146    0.44653    1.000
    N474     N        0.04109    0.34477    0.40739    1.000
    N475     N        0.99460    0.30517    0.43990    1.000
    N476     N        0.18950    0.33410    0.39925    1.000
    N477     N        0.12335    0.33840    0.42959    1.000
    Si478    Si       0.11642    0.34282    0.38577    1.000
    Si479    Si       0.16822    0.33806    0.43688    1.000
    Si480    Si       0.06791    0.34469    0.59432    1.000
    N481     N        0.09443    0.34570    0.55874    1.000
    Si482    Si       0.99147    0.35258    0.60748    1.000
    N483     N        0.02789    0.36291    0.58782    1.000
    Si484    Si       0.13453    0.33029    0.54086    1.000
    N485     N        0.17345    0.33165    0.56209    1.000
    Si486    Si       0.21311    0.34192    0.54997    1.000
    Si487    Si       0.17659    0.31763    0.60574    1.000
    N488     N        0.23262    0.31080    0.52578    1.000
    N489     N        0.12476    0.31612    0.50111    1.000
    N490     N        0.13694    0.31940    0.62122    1.000
    N491     N        0.00394    0.31211    0.62199    1.000
    N492     N        0.03073    0.33795    0.68023    1.000
    N493     N        0.10350    0.34782    0.68730    1.000
    Si494    Si       0.00540    0.30750    0.66591    1.000
    Si495    Si       0.06372    0.36111    0.69553    1.000
    N496     N        0.13193    0.30855    0.73643    1.000
    N497     N        0.20540    0.34463    0.62470    1.000
    Si498    Si       0.11960    0.35118    0.64545    1.000
    Si499    Si       0.13854    0.34390    0.71328    1.000
    N500     N        0.17198    0.33162    0.68892    1.000
    Si501    Si       0.18963    0.36284    0.66316    1.000
    N502     N        0.04277    0.33266    0.79699    1.000
    Si503    Si       0.00927    0.31639    0.82348    1.000
    N504     N        0.08826    0.33902    0.84802    1.000
    Si505    Si       0.07751    0.35618    0.80915    1.000
    Si506    Si       0.03036    0.33094    0.75394    1.000
    Si507    Si       0.11610    0.30155    0.84471    1.000
    N508     N        0.11681    0.35331    0.78972    1.000
    Si509    Si       0.13739    0.31447    0.77881    1.000
    Si510    Si       0.22005    0.34094    0.78919    1.000
    N511     N        0.17758    0.33525    0.77814    1.000
    N512     N        0.22511    0.33102    0.83379    1.000
    N513     N        0.14989    0.32676    0.85447    1.000
    Si514    Si       0.19095    0.33242    0.86333    1.000
    N515     N        0.23867    0.36697    0.75578    1.000
    N516     N        0.06893    0.31841    0.91618    1.000
    Si517    Si       0.10632    0.33273    0.93274    1.000
    Si518    Si       0.05782    0.33415    0.87844    1.000
    Si519    Si       0.99845    0.35604    0.91034    1.000
    Si520    Si       0.04952    0.31664    0.95592    1.000
    N521     N        0.01021    0.32992    0.94360    1.000
    N522     N        0.08682    0.33777    0.97178    1.000
    Si523    Si       0.23390    0.31765    0.92352    1.000
    N524     N        0.22308    0.35468    0.94285    1.000
    N525     N        0.20313    0.30569    0.89523    1.000
    Si526    Si       0.04251    0.39471    0.10627    1.000
    N527     N        0.08628    0.38357    0.10331    1.000
    N528     N        0.04471    0.38231    0.01312    1.000
    N529     N        0.10855    0.38087    0.03025    1.000
    N530     N        0.02384    0.41817    0.07613    1.000
    Si531    Si       0.03128    0.41986    0.03129    1.000
    N532     N        0.17739    0.39247    0.02086    1.000
    Si533    Si       0.22023    0.38455    0.02030    1.000
    Si534    Si       0.17903    0.39500    0.06604    1.000
    N535     N        0.14681    0.37260    0.08670    1.000
    N536     N        0.22507    0.39535    0.06295    1.000
    Si537    Si       0.13779    0.40575    0.00649    1.000
    N538     N        0.03384    0.38037    0.23892    1.000
    Si539    Si       0.99286    0.39677    0.22951    1.000
    Si540    Si       0.12492    0.38144    0.12291    1.000
    Si541    Si       0.12810    0.36244    0.19754    1.000
    N542     N        0.22140    0.38892    0.18348    1.000
    N543     N        0.14536    0.40138    0.20824    1.000
    N544     N        0.20607    0.36600    0.12330    1.000
    Si545    Si       0.21964    0.40358    0.14227    1.000
    Si546    Si       0.23347    0.39396    0.22463    1.000
    N547     N        0.04537    0.40227    0.31025    1.000
    Si548    Si       0.05485    0.40622    0.26743    1.000
    N549     N        0.09836    0.40206    0.26000    1.000
    Si550    Si       0.06560    0.36731    0.32997    1.000
    N551     N        0.08576    0.37298    0.36824    1.000
    Si552    Si       0.11686    0.40667    0.36490    1.000
    Si553    Si       0.12156    0.38157    0.29181    1.000
    N554     N        0.12910    0.40940    0.32313    1.000
    N555     N        0.21217    0.38363    0.35508    1.000
    N556     N        0.20120    0.41080    0.29648    1.000
    Si557    Si       0.19594    0.36881    0.28949    1.000
    N558     N        0.15547    0.36264    0.27426    1.000
    Si559    Si       0.17696    0.36460    0.37033    1.000
    N560     N        0.03083    0.41575    0.37640    1.000
    N561     N        0.06767    0.40343    0.43204    1.000
    N562     N        0.08460    0.37292    0.49190    1.000
    Si563    Si       0.05382    0.39670    0.47227    1.000
    N564     N        0.02076    0.36663    0.47066    1.000
    Si565    Si       0.05280    0.38356    0.39547    1.000
    N566     N        0.17241    0.37564    0.45840    1.000
    N567     N        0.14620    0.38849    0.39061    1.000
    Si568    Si       0.16234    0.40581    0.42881    1.000
    Si569    Si       0.03566    0.40408    0.57350    1.000
    N570     N        0.01452    0.40124    0.53517    1.000
    Si571    Si       0.09635    0.38200    0.53211    1.000
    N572     N        0.07849    0.41261    0.56071    1.000
    Si573    Si       0.99427    0.37710    0.50657    1.000
    N574     N        0.08451    0.36758    0.62629    1.000
    N575     N        0.14023    0.37647    0.52510    1.000
    N576     N        0.21019    0.37124    0.51719    1.000
    Si577    Si       0.17363    0.38845    0.50003    1.000
    N578     N        0.05864    0.40185    0.67859    1.000
    Si579    Si       0.07115    0.40923    0.63530    1.000
    N580     N        0.05289    0.36520    0.73760    1.000
    N581     N        0.15004    0.37901    0.64970    1.000
    Si582    Si       0.14306    0.42134    0.64332    1.000
    N583     N        0.15005    0.38069    0.73310    1.000
    N584     N        0.21113    0.39842    0.67501    1.000
    N585     N        0.07061    0.39873    0.79867    1.000
    Si586    Si       0.04400    0.39988    0.76272    1.000
    N587     N        0.00111    0.39803    0.77230    1.000
    N588     N        0.12525    0.39570    0.84803    1.000
    Si589    Si       0.15496    0.37717    0.77751    1.000
    N590     N        0.19889    0.39157    0.80025    1.000
    Si591    Si       0.20381    0.40269    0.84405    1.000
    Si592    Si       0.22226    0.40785    0.76603    1.000
    N593     N        0.14140    0.41870    0.78848    1.000
    Si594    Si       0.12234    0.35882    0.86792    1.000
    Si595    Si       0.08418    0.37534    0.99446    1.000
    Si596    Si       0.02765    0.41230    0.89842    1.000
    N597     N        0.03664    0.36915    0.88955    1.000
    N598     N        0.11143    0.40371    0.97094    1.000
    N599     N        0.99238    0.39809    0.91818    1.000
    N600     N        0.19530    0.37421    0.87546    1.000
    N601     N        0.17072    0.40632    0.93920    1.000
    Si602    Si       0.12737    0.40406    0.93100    1.000
    N603     N        0.11895    0.36557    0.91006    1.000
    Si604    Si       0.20425    0.38665    0.91806    1.000
    Si605    Si       0.02059    0.45546    0.10410    1.000
    N606     N        0.10555    0.46319    0.09075    1.000
    N607     N        0.06695    0.44445    0.03420    1.000
    Si608    Si       0.09690    0.46109    0.00980    1.000
    Si609    Si       0.14118    0.46060    0.06459    1.000
    N610     N        0.13426    0.44398    0.02530    1.000
    N611     N        0.17096    0.43316    0.08014    1.000
    Si612    Si       0.19015    0.46533    0.10410    1.000
    N613     N        0.23118    0.46547    0.08213    1.000
    N614     N        0.05180    0.43372    0.12695    1.000
    Si615    Si       0.09261    0.44494    0.12993    1.000
    N616     N        0.10427    0.45805    0.21861    1.000
    Si617    Si       0.06930    0.47606    0.23660    1.000
    Si618    Si       0.24047    0.47265    0.22165    1.000
    N619     N        0.12616    0.41953    0.14369    1.000
    N620     N        0.16139    0.46527    0.18674    1.000
    Si621    Si       0.15919    0.42461    0.17164    1.000
    N622     N        0.19338    0.43758    0.14253    1.000
    N623     N        0.22479    0.43577    0.23677    1.000
    Si624    Si       0.12767    0.42726    0.23781    1.000
    N625     N        0.02861    0.46616    0.33596    1.000
    Si626    Si       0.00106    0.45654    0.26366    1.000
    N627     N        0.04163    0.44551    0.25482    1.000
    Si628    Si       0.00806    0.42390    0.33482    1.000
    Si629    Si       0.05303    0.45679    0.37282    1.000
    Si630    Si       0.11371    0.47652    0.36202    1.000
    Si631    Si       0.19829    0.44431    0.26734    1.000
    N632     N        0.18563    0.45023    0.34360    1.000
    N633     N        0.15603    0.44492    0.26677    1.000
    Si634    Si       0.15548    0.44172    0.31198    1.000
    Si635    Si       0.22092    0.42626    0.33400    1.000
    N636     N        0.09588    0.44046    0.38091    1.000
    Si637    Si       0.99947    0.43794    0.40046    1.000
    Si638    Si       0.07743    0.47054    0.48417    1.000
    N639     N        0.02682    0.47282    0.40467    1.000
    Si640    Si       0.09540    0.43697    0.42464    1.000
    N641     N        0.08199    0.47435    0.44045    1.000
    N642     N        0.05367    0.43437    0.49254    1.000
    N643     N        0.99345    0.46083    0.49518    1.000
    N644     N        0.19919    0.42379    0.42310    1.000
    Si645    Si       0.23426    0.44339    0.40930    1.000
    Si646    Si       0.14738    0.45706    0.47485    1.000
    N647     N        0.13029    0.42947    0.44669    1.000
    Si648    Si       0.02084    0.44210    0.52229    1.000
    Si649    Si       0.10416    0.44376    0.58019    1.000
    N650     N        0.01170    0.46355    0.56048    1.000
    Si651    Si       0.03960    0.46864    0.59405    1.000
    N652     N        0.03548    0.42877    0.61263    1.000
    N653     N        0.10778    0.42979    0.62212    1.000
    N654     N        0.08019    0.47895    0.58023    1.000
    N655     N        0.14378    0.45774    0.56373    1.000
    Si656    Si       0.17557    0.46399    0.59210    1.000
    N657     N        0.20983    0.46638    0.56650    1.000
    Si658    Si       0.19800    0.45991    0.52346    1.000
    N659     N        0.11616    0.47231    0.50136    1.000
    N660     N        0.17276    0.43326    0.50099    1.000
    N661     N        0.04663    0.43988    0.74404    1.000
    N662     N        0.01220    0.45376    0.67825    1.000
    N663     N        0.07463    0.46746    0.68303    1.000
    Si664    Si       0.04807    0.43695    0.70104    1.000
    Si665    Si       0.99343    0.42701    0.63814    1.000
    Si666    Si       0.15237    0.42508    0.72330    1.000
    N667     N        0.17929    0.43806    0.62597    1.000
    Si668    Si       0.11577    0.46969    0.69411    1.000
    N669     N        0.12251    0.45752    0.73583    1.000
    Si670    Si       0.20949    0.43993    0.65558    1.000
    N671     N        0.14027    0.43453    0.68241    1.000
    N672     N        0.19963    0.47597    0.67801    1.000
    N673     N        0.19009    0.43164    0.74431    1.000
    N674     N        0.01573    0.46309    0.79857    1.000
    Si675    Si       0.01547    0.46937    0.84148    1.000
    N676     N        0.10680    0.45525    0.83784    1.000
    N677     N        0.02760    0.43315    0.86107    1.000
    Si678    Si       0.04748    0.47424    0.77239    1.000
    Si679    Si       0.10623    0.41721    0.81368    1.000
    Si680    Si       0.17242    0.44816    0.78327    1.000
    N681     N        0.17652    0.43782    0.85906    1.000
    N682     N        0.21190    0.46293    0.79945    1.000
    Si683    Si       0.13265    0.43550    0.86756    1.000
    N684     N        0.04844    0.43786    0.92663    1.000
    Si685    Si       0.08331    0.46207    0.92489    1.000
    Si686    Si       0.01910    0.45714    0.95606    1.000
    N687     N        0.08857    0.47184    0.96926    1.000
    N688     N        0.01038    0.44256    0.99654    1.000
    N689     N        0.22805    0.42371    0.92366    1.000
    Si690    Si       0.19609    0.47246    0.87527    1.000
    N691     N        0.11675    0.44059    0.90758    1.000
    N692     N        0.21631    0.45888    0.97598    1.000
    N693     N        0.18195    0.47663    0.91675    1.000
    Si694    Si       0.19092    0.44435    0.94328    1.000
    Si695    Si       0.00677    0.51812    0.06213    1.000
    N696     N        0.09766    0.49783    0.03294    1.000
    N697     N        0.08366    0.51947    0.09381    1.000
    N698     N        0.02927    0.48355    0.07112    1.000
    N699     N        0.01141    0.53458    0.02141    1.000
    Si700    Si       0.07292    0.48450    0.06591    1.000
    Si701    Si       0.11905    0.50197    0.11366    1.000
    N702     N        0.20800    0.51073    0.03755    1.000
    N703     N        0.15951    0.49529    0.08513    1.000
    Si704    Si       0.17390    0.52733    0.05945    1.000
    N705     N        0.05080    0.49691    0.20395    1.000
    Si706    Si       0.06221    0.50333    0.16166    1.000
    N707     N        0.02665    0.49411    0.14038    1.000
    Si708    Si       0.00889    0.50518    0.21330    1.000
    N709     N        0.09908    0.48204    0.15162    1.000
    N710     N        0.12420    0.52602    0.20160    1.000
    N711     N        0.20773    0.50176    0.21434    1.000
    Si712    Si       0.20137    0.47706    0.17152    1.000
    Si713    Si       0.12296    0.48345    0.18851    1.000
    N714     N        0.20816    0.50441    0.13585    1.000
    N715     N        0.14217    0.53208    0.13561    1.000
    N716     N        0.08751    0.49735    0.26992    1.000
    Si717    Si       0.00425    0.50462    0.33364    1.000
    N718     N        0.00238    0.49853    0.25493    1.000
    N719     N        0.03197    0.53494    0.32075    1.000
    N720     N        0.07936    0.50184    0.37068    1.000
    Si721    Si       0.07341    0.53664    0.34266    1.000
    N722     N        0.98928    0.52026    0.37162    1.000
    Si723    Si       0.12161    0.50681    0.29060    1.000
    N724     N        0.15466    0.52456    0.26713    1.000
    N725     N        0.19216    0.52366    0.34925    1.000
    Si726    Si       0.19584    0.52002    0.25439    1.000
    Si727    Si       0.18743    0.48629    0.37015    1.000
    N728     N        0.21182    0.48599    0.27606    1.000
    N729     N        0.12759    0.47474    0.32025    1.000
    Si730    Si       0.00699    0.51238    0.41033    1.000
    Si731    Si       0.00785    0.49920    0.48564    1.000
    Si732    Si       0.07275    0.50910    0.41444    1.000
    N733     N        0.10490    0.53464    0.42982    1.000
    N734     N        0.05060    0.50042    0.49757    1.000
    N735     N        0.04083    0.53808    0.41636    1.000
    N736     N        0.15763    0.49109    0.45023    1.000
    Si737    Si       0.14300    0.51714    0.41854    1.000
    N738     N        0.14699    0.49154    0.38545    1.000
    N739     N        0.21881    0.48344    0.39933    1.000
    Si740    Si       0.08866    0.52208    0.57601    1.000
    N741     N        0.00021    0.53376    0.51242    1.000
    Si742    Si       0.04485    0.54028    0.51711    1.000
    Si743    Si       0.14027    0.48958    0.53370    1.000
    N744     N        0.16398    0.50191    0.61301    1.000
    N745     N        0.12708    0.52647    0.55321    1.000
    N746     N        0.17884    0.50006    0.51814    1.000
    Si747    Si       0.20454    0.53439    0.51339    1.000
    Si748    Si       0.14525    0.53738    0.59633    1.000
    N749     N        0.03222    0.49916    0.62459    1.000
    N750     N        0.03095    0.52528    0.67954    1.000
    N751     N        0.10599    0.52605    0.73674    1.000
    Si752    Si       0.03958    0.48517    0.66586    1.000
    N753     N        0.20377    0.53140    0.72517    1.000
    Si754    Si       0.22590    0.49709    0.70733    1.000
    Si755    Si       0.17489    0.50549    0.65667    1.000
    N756     N        0.13703    0.50466    0.67869    1.000
    N757     N        0.04486    0.50198    0.84627    1.000
    Si758    Si       0.08754    0.49472    0.83287    1.000
    Si759    Si       0.02076    0.53310    0.86299    1.000
    N760     N        0.10791    0.52270    0.85871    1.000
    N761     N        0.08462    0.49048    0.78896    1.000
    N762     N        0.03669    0.51046    0.75013    1.000
    Si763    Si       0.11889    0.49177    0.76160    1.000
    N764     N        0.18062    0.50694    0.85044    1.000
    Si765    Si       0.19004    0.50034    0.80968    1.000
    N766     N        0.21879    0.52854    0.79406    1.000
    N767     N        0.15747    0.48972    0.78440    1.000
    N768     N        0.02693    0.49851    0.96373    1.000
    Si769    Si       0.06912    0.51067    0.96321    1.000
    N770     N        0.99804    0.52792    0.90323    1.000
    N771     N        0.07656    0.50614    0.91807    1.000
    Si772    Si       0.99265    0.51589    0.98648    1.000
    Si773    Si       0.21739    0.49876    0.99442    1.000
    Si774    Si       0.18416    0.51798    0.92928    1.000
    N775     N        0.18357    0.51845    0.97334    1.000
    N776     N        0.02373    0.55499    0.08263    1.000
    Si777    Si       0.06819    0.56043    0.08624    1.000
    N778     N        0.08652    0.57315    0.04873    1.000
    Si779    Si       0.99954    0.58809    0.09748    1.000
    Si780    Si       0.03965    0.56372    0.00637    1.000
    N781     N        0.07090    0.59262    0.11342    1.000
    Si782    Si       0.10552    0.53949    0.02282    1.000
    N783     N        0.18147    0.56136    0.08716    1.000
    N784     N        0.14767    0.54279    0.02863    1.000
    Si785    Si       0.05182    0.58302    0.15179    1.000
    Si786    Si       0.00648    0.58112    0.23466    1.000
    N787     N        0.07310    0.54519    0.16102    1.000
    N788     N        0.00215    0.54912    0.20387    1.000
    N789     N        0.00988    0.58568    0.14030    1.000
    Si790    Si       0.11712    0.55035    0.16657    1.000
    N791     N        0.13525    0.59065    0.17069    1.000
    N792     N        0.17116    0.57562    0.22660    1.000
    Si793    Si       0.18416    0.54210    0.12763    1.000
    Si794    Si       0.13662    0.55123    0.23423    1.000
    N795     N        0.19990    0.57051    0.15617    1.000
    Si796    Si       0.17609    0.59180    0.18620    1.000
    Si797    Si       0.01795    0.57126    0.29898    1.000
    N798     N        0.04083    0.58164    0.26261    1.000
    N799     N        0.07292    0.57265    0.36398    1.000
    N800     N        0.10906    0.57785    0.25490    1.000
    N801     N        0.10779    0.54150    0.31471    1.000
    Si802    Si       0.12309    0.57740    0.29707    1.000
    N803     N        0.22059    0.55358    0.26726    1.000
    Si804    Si       0.19140    0.58952    0.26337    1.000
    N805     N        0.16441    0.59231    0.29563    1.000
    Si806    Si       0.05420    0.57928    0.40241    1.000
    Si807    Si       0.09613    0.56366    0.46047    1.000
    N808     N        0.07698    0.59559    0.43490    1.000
    N809     N        0.06988    0.56879    0.49729    1.000
    N810     N        0.18220    0.59654    0.36977    1.000
    Si811    Si       0.17285    0.56748    0.45548    1.000
    N812     N        0.17141    0.54942    0.41592    1.000
    N813     N        0.13647    0.56245    0.48177    1.000
    N814     N        0.21202    0.55825    0.47337    1.000
    Si815    Si       0.19711    0.55569    0.37937    1.000
    N816     N        0.23880    0.55232    0.39337    1.000
    Si817    Si       0.03925    0.58181    0.57881    1.000
    N818     N        0.99974    0.58124    0.56149    1.000
    N819     N        0.05500    0.54384    0.55945    1.000
    N820     N        0.10503    0.54498    0.61071    1.000
    N821     N        0.04047    0.57074    0.62085    1.000
    N822     N        0.11643    0.59131    0.54609    1.000
    N823     N        0.17628    0.56854    0.59473    1.000
    Si824    Si       0.13755    0.56044    0.52471    1.000
    N825     N        0.18046    0.56733    0.53215    1.000
    Si826    Si       0.19457    0.59402    0.56153    1.000
    Si827    Si       0.08257    0.57365    0.63291    1.000
    N828     N        0.09493    0.56781    0.67373    1.000
    N829     N        0.04883    0.56917    0.73317    1.000
    Si830    Si       0.07608    0.59141    0.70464    1.000
    Si831    Si       0.01994    0.53751    0.71897    1.000
    Si832    Si       0.01894    0.53827    0.63869    1.000
    Si833    Si       0.21093    0.56377    0.62174    1.000
    Si834    Si       0.14638    0.59308    0.74016    1.000
    Si835    Si       0.12254    0.54036    0.69860    1.000
    N836     N        0.15476    0.56972    0.70493    1.000
    Si837    Si       0.19640    0.56242    0.69561    1.000
    N838     N        0.19663    0.54347    0.65645    1.000
    N839     N        0.09000    0.55690    0.79642    1.000
    N840     N        0.99395    0.55264    0.83706    1.000
    Si841    Si       0.07114    0.54122    0.76107    1.000
    Si842    Si       0.12888    0.57474    0.80467    1.000
    N843     N        0.14700    0.57515    0.84434    1.000
    Si844    Si       0.20053    0.55268    0.76419    1.000
    N845     N        0.15904    0.56454    0.77161    1.000
    N846     N        0.22564    0.58676    0.75849    1.000
    Si847    Si       0.14781    0.53431    0.86261    1.000
    N848     N        0.04956    0.56083    0.87752    1.000
    N849     N        0.02545    0.57624    0.96547    1.000
    N850     N        0.09909    0.57582    0.91039    1.000
    Si851    Si       0.99824    0.56003    0.93381    1.000
    N852     N        0.07654    0.54212    0.99050    1.000
    Si853    Si       0.08466    0.53927    0.89146    1.000
    N854     N        0.15551    0.54048    0.90562    1.000
    Si855    Si       0.23722    0.55670    0.95878    1.000
    Si856    Si       0.17344    0.55371    0.99357    1.000
    N857     N        0.14995    0.58214    0.96848    1.000
    Si858    Si       0.14124    0.57883    0.92444    1.000
    N859     N        0.21192    0.57544    0.98935    1.000
    N860     N        0.22310    0.53651    0.92256    1.000
    N861     N        0.00737    0.62877    0.08311    1.000
    N862     N        0.07328    0.64027    0.06561    1.000
    Si863    Si       0.10196    0.61389    0.04477    1.000
    Si864    Si       0.09140    0.62705    0.10212    1.000
    Si865    Si       0.03359    0.63927    0.05078    1.000
    N866     N        0.03336    0.60730    0.01974    1.000
    N867     N        0.12034    0.63732    0.01222    1.000
    N868     N        0.12853    0.61265    0.08142    1.000
    N869     N        0.19575    0.63072    0.09728    1.000
    Si870    Si       0.17053    0.60291    0.07559    1.000
    N871     N        0.17733    0.60425    0.03376    1.000
    Si872    Si       0.21845    0.60289    0.02320    1.000
    N873     N        0.23288    0.64301    0.01532    1.000
    Si874    Si       0.15407    0.61396    0.99911    1.000
    Si875    Si       0.10869    0.62441    0.17314    1.000
    N876     N        0.00936    0.61660    0.21115    1.000
    N877     N        0.10154    0.64758    0.13653    1.000
    N878     N        0.06942    0.60936    0.18186    1.000
    Si879    Si       0.04765    0.63658    0.20899    1.000
    Si880    Si       0.22865    0.62986    0.21483    1.000
    N881     N        0.19014    0.63324    0.19350    1.000
    N882     N        0.09338    0.61143    0.30520    1.000
    Si883    Si       0.06640    0.60831    0.34021    1.000
    Si884    Si       0.99869    0.61491    0.35378    1.000
    N885     N        0.08822    0.64186    0.36096    1.000
    Si886    Si       0.07566    0.60407    0.26522    1.000
    Si887    Si       0.10660    0.65217    0.32146    1.000
    N888     N        0.02737    0.60376    0.32429    1.000
    N889     N        0.06316    0.64348    0.24807    1.000
    N890     N        0.21440    0.63882    0.32490    1.000
    Si891    Si       0.17662    0.61583    0.33084    1.000
    N892     N        0.21894    0.62242    0.25612    1.000
    Si893    Si       0.23582    0.64637    0.36286    1.000
    N894     N        0.14858    0.64858    0.32735    1.000
    N895     N        0.02750    0.63538    0.46007    1.000
    Si896    Si       0.07100    0.63263    0.45718    1.000
    Si897    Si       0.01074    0.63859    0.41847    1.000
    N898     N        0.02274    0.60771    0.39023    1.000
    N899     N        0.08969    0.63488    0.49473    1.000
    Si900    Si       0.17476    0.62196    0.40491    1.000
    N901     N        0.17298    0.61104    0.44671    1.000
    Si902    Si       0.18722    0.63332    0.48078    1.000
    N903     N        0.23023    0.62703    0.48759    1.000
    N904     N        0.21410    0.64943    0.40115    1.000
    Si905    Si       0.23654    0.64785    0.44024    1.000
    N906     N        0.06049    0.61619    0.55937    1.000
    N907     N        0.00312    0.64250    0.52767    1.000
    Si908    Si       0.10504    0.62019    0.57762    1.000
    Si909    Si       0.03961    0.65292    0.55055    1.000
    Si910    Si       0.08179    0.60209    0.52214    1.000
    N911     N        0.09850    0.61376    0.62108    1.000
    N912     N        0.18319    0.63245    0.57708    1.000
    Si913    Si       0.20982    0.63981    0.61047    1.000
    N914     N        0.06625    0.62888    0.68248    1.000
    N915     N        0.01337    0.63367    0.72776    1.000
    Si916    Si       0.09164    0.64510    0.65189    1.000
    N917     N        0.10346    0.60385    0.73592    1.000
    Si918    Si       0.03769    0.65543    0.69741    1.000
    N919     N        0.21801    0.59924    0.69436    1.000
    N920     N        0.17142    0.62806    0.74466    1.000
    Si921    Si       0.21282    0.62080    0.73359    1.000
    N922     N        0.22797    0.60375    0.62806    1.000
    N923     N        0.23797    0.65717    0.73709    1.000
    Si924    Si       0.04571    0.63975    0.81991    1.000
    N925     N        0.06615    0.62245    0.85479    1.000
    Si926    Si       0.09073    0.63207    0.76862    1.000
    N927     N        0.05198    0.61949    0.78068    1.000
    N928     N        0.00247    0.62728    0.82208    1.000
    Si929    Si       0.02422    0.60080    0.75320    1.000
    N930     N        0.12205    0.61788    0.79708    1.000
    N931     N        0.19773    0.63019    0.84621    1.000
    Si932    Si       0.16248    0.61249    0.86268    1.000
    N933     N        0.13354    0.64648    0.86133    1.000
    Si934    Si       0.12147    0.65225    0.82121    1.000
    Si935    Si       0.23971    0.62890    0.85697    1.000
    Si936    Si       0.02681    0.62008    0.97801    1.000
    N937     N        0.03969    0.62137    0.91675    1.000
    N938     N        0.10490    0.64375    0.92465    1.000
    Si939    Si       0.99668    0.62744    0.92081    1.000
    Si940    Si       0.06620    0.59886    0.89064    1.000
    N941     N        0.05275    0.65518    0.97285    1.000
    Si942    Si       0.17962    0.63817    0.93495    1.000
    N943     N        0.17070    0.64918    0.97861    1.000
    N944     N        0.16838    0.60717    0.90668    1.000
    N945     N        0.22082    0.63547    0.94521    1.000
    N946     N        0.00507    0.69980    0.08778    1.000
    N947     N        0.02283    0.67511    0.02869    1.000
    Si948    Si       0.99679    0.70574    0.04575    1.000
    N949     N        0.12781    0.69050    0.09243    1.000
    N950     N        0.19603    0.70048    0.09176    1.000
    N951     N        0.16414    0.69417    0.03032    1.000
    Si952    Si       0.14177    0.67528    0.99973    1.000
    Si953    Si       0.15841    0.70958    0.07150    1.000
    Si954    Si       0.01724    0.69215    0.16674    1.000
    N955     N        0.05170    0.67454    0.18934    1.000
    Si956    Si       0.09187    0.68750    0.19563    1.000
    N957     N        0.08943    0.70999    0.23337    1.000
    N958     N        0.99574    0.65766    0.14821    1.000
    N959     N        0.10326    0.71258    0.16220    1.000
    N960     N        0.17983    0.70614    0.21130    1.000
    N961     N        0.23206    0.66357    0.13877    1.000
    N962     N        0.16253    0.67936    0.14932    1.000
    Si963    Si       0.19441    0.66996    0.12101    1.000
    Si964    Si       0.16552    0.66946    0.19217    1.000
    Si965    Si       0.12344    0.68682    0.13512    1.000
    N966     N        0.12240    0.65630    0.19920    1.000
    N967     N        0.08429    0.68488    0.29967    1.000
    Si968    Si       0.06249    0.68550    0.26239    1.000
    Si969    Si       0.00530    0.68892    0.36733    1.000
    Si970    Si       0.07873    0.71077    0.33572    1.000
    N971     N        0.02536    0.71041    0.26582    1.000
    N972     N        0.10823    0.70195    0.36666    1.000
    N973     N        0.03788    0.71137    0.34749    1.000
    N974     N        0.18779    0.69731    0.35894    1.000
    Si975    Si       0.18134    0.67647    0.32387    1.000
    N976     N        0.18523    0.68943    0.28286    1.000
    Si977    Si       0.10837    0.66668    0.39400    1.000
    Si978    Si       0.05114    0.69650    0.43168    1.000
    N979     N        0.07991    0.66287    0.42793    1.000
    N980     N        0.01853    0.67876    0.40737    1.000
    N981     N        0.03095    0.70820    0.47024    1.000
    Si982    Si       0.18744    0.68244    0.41114    1.000
    N983     N        0.19960    0.67092    0.45667    1.000
    N984     N        0.15047    0.65865    0.40365    1.000
    Si985    Si       0.19643    0.69289    0.49398    1.000
    N986     N        0.05872    0.68413    0.52863    1.000
    Si987    Si       0.09932    0.66979    0.51987    1.000
    N988     N        0.01591    0.67418    0.58286    1.000
    N989     N        0.99146    0.71144    0.52000    1.000
    Si990    Si       0.03326    0.71717    0.51389    1.000
    N991     N        0.12142    0.70317    0.50650    1.000
    N992     N        0.16263    0.70524    0.56284    1.000
    Si993    Si       0.16041    0.66266    0.55562    1.000
    N994     N        0.17404    0.65794    0.51335    1.000
    N995     N        0.23530    0.69464    0.51539    1.000
    N996     N        0.11855    0.65541    0.55590    1.000
    N997     N        0.13483    0.71029    0.62541    1.000
    Si998    Si       0.02802    0.68105    0.62380    1.000
    N999     N        0.07129    0.67711    0.62707    1.000
    N1000    N        0.05664    0.69190    0.71584    1.000
    Si1001   Si       0.10114    0.69036    0.71138    1.000
    N1002    N        0.01359    0.66209    0.66015    1.000
    N1003    N        0.17845    0.70710    0.68042    1.000
    Si1004   Si       0.21642    0.71546    0.65902    1.000
    N1005    N        0.11745    0.66943    0.67628    1.000
    Si1006   Si       0.15243    0.68402    0.65532    1.000
    N1007    N        0.18216    0.65887    0.63797    1.000
    N1008    N        0.02119    0.68545    0.81833    1.000
    Si1009   Si       0.06015    0.70468    0.81507    1.000
    N1010    N        0.08225    0.66768    0.80863    1.000
    N1011    N        0.11442    0.66733    0.74833    1.000
    N1012    N        0.19562    0.70460    0.85616    1.000
    Si1013   Si       0.19370    0.67029    0.82925    1.000
    N1014    N        0.22499    0.67993    0.80122    1.000
    Si1015   Si       0.22013    0.69149    0.75928    1.000
    N1016    N        0.15868    0.67079    0.80477    1.000
    Si1017   Si       0.15545    0.66344    0.76241    1.000
    N1018    N        0.18018    0.69773    0.74705    1.000
    N1019    N        0.04835    0.68927    0.91747    1.000
    Si1020   Si       0.00661    0.69962    0.92432    1.000
    N1021    N        0.99725    0.70341    0.96857    1.000
    Si1022   Si       0.03549    0.69084    0.98998    1.000
    N1023    N        0.11336    0.70791    0.90658    1.000
    Si1024   Si       0.06504    0.65181    0.93236    1.000
    N1025    N        0.12358    0.70495    0.97576    1.000
    N1026    N        0.21543    0.70158    0.97856    1.000
    Si1027   Si       0.21498    0.65847    0.98054    1.000
    N1028    N        0.17048    0.67390    0.91346    1.000
    Si1029   Si       0.12862    0.66738    0.89886    1.000
    Si1030   Si       0.19528    0.70519    0.90028    1.000
    N1031    N        0.06502    0.74103    0.08523    1.000
    Si1032   Si       0.02717    0.73307    0.10328    1.000
    N1033    N        0.99997    0.74556    0.03007    1.000
    Si1034   Si       0.03157    0.76403    0.00595    1.000
    Si1035   Si       0.08339    0.76775    0.05755    1.000
    N1036    N        0.99567    0.76489    0.09879    1.000
    N1037    N        0.11315    0.75568    0.02622    1.000
    N1038    N        0.21492    0.76671    0.11088    1.000
    Si1039   Si       0.22525    0.73213    0.08649    1.000
    N1040    N        0.15887    0.75222    0.07620    1.000
    N1041    N        0.18188    0.76038    0.00698    1.000
    Si1042   Si       0.19863    0.72045    0.01637    1.000
    N1043    N        0.23075    0.73402    0.04303    1.000
    Si1044   Si       0.17238    0.77434    0.11235    1.000
    Si1045   Si       0.15102    0.77130    0.03742    1.000
    Si1046   Si       0.03953    0.76467    0.16724    1.000
    N1047    N        0.03677    0.75961    0.21179    1.000
    N1048    N        0.02852    0.72758    0.14658    1.000
    Si1049   Si       0.00912    0.72944    0.22697    1.000
    Si1050   Si       0.11224    0.75580    0.16295    1.000
    Si1051   Si       0.11389    0.74513    0.24243    1.000
    Si1052   Si       0.20473    0.74283    0.19893    1.000
    N1053    N        0.14892    0.75701    0.14222    1.000
    N1054    N        0.12282    0.76677    0.20433    1.000
    N1055    N        0.21744    0.74655    0.24160    1.000
    N1056    N        0.23465    0.72722    0.17040    1.000
    N1057    N        0.08770    0.75385    0.33889    1.000
    Si1058   Si       0.01550    0.74663    0.35842    1.000
    N1059    N        0.99897    0.76088    0.31927    1.000
    Si1060   Si       0.99247    0.72940    0.28743    1.000
    N1061    N        0.08910    0.77328    0.26500    1.000
    N1062    N        0.15268    0.74692    0.26232    1.000
    N1063    N        0.20078    0.76470    0.35422    1.000
    Si1064   Si       0.18609    0.71847    0.25294    1.000
    Si1065   Si       0.23207    0.77033    0.27527    1.000
    Si1066   Si       0.10125    0.74638    0.38109    1.000
    N1067    N        0.07455    0.72831    0.41449    1.000
    Si1068   Si       0.08696    0.76219    0.43919    1.000
    Si1069   Si       0.20360    0.75009    0.45183    1.000
    N1070    N        0.18855    0.72530    0.41752    1.000
    N1071    N        0.12734    0.76247    0.45392    1.000
    N1072    N        0.18319    0.73288    0.48649    1.000
    Si1073   Si       0.17702    0.73580    0.37531    1.000
    N1074    N        0.14231    0.75872    0.38950    1.000
    Si1075   Si       0.13914    0.73982    0.48854    1.000
    N1076    N        0.05038    0.75586    0.52367    1.000
    N1077    N        0.09201    0.72746    0.57253    1.000
    Si1078   Si       0.06282    0.75927    0.56582    1.000
    N1079    N        0.02961    0.76600    0.59329    1.000
    Si1080   Si       0.09325    0.71129    0.61530    1.000
    N1081    N        0.12835    0.76298    0.52315    1.000
    Si1082   Si       0.16468    0.72904    0.60047    1.000
    Si1083   Si       0.12624    0.72381    0.54567    1.000
    N1084    N        0.14602    0.76756    0.59204    1.000
    N1085    N        0.20213    0.73299    0.62110    1.000
    Si1086   Si       0.22318    0.77030    0.61205    1.000
    N1087    N        0.08006    0.74980    0.63256    1.000
    N1088    N        0.05831    0.76051    0.71934    1.000
    Si1089   Si       0.03805    0.75683    0.63477    1.000
    Si1090   Si       0.10121    0.76959    0.72403    1.000
    N1091    N        0.01541    0.72007    0.64145    1.000
    Si1092   Si       0.04838    0.72495    0.74273    1.000
    N1093    N        0.23421    0.74498    0.68476    1.000
    N1094    N        0.18124    0.76458    0.72081    1.000
    N1095    N        0.11868    0.72909    0.71640    1.000
    Si1096   Si       0.16454    0.72517    0.71786    1.000
    N1097    N        0.06533    0.73253    0.78305    1.000
    Si1098   Si       0.01358    0.75617    0.79238    1.000
    N1099    N        0.01493    0.76147    0.83927    1.000
    N1100    N        0.00872    0.72987    0.75823    1.000
    Si1101   Si       0.10905    0.75339    0.85023    1.000
    N1102    N        0.07869    0.71989    0.85045    1.000
    Si1103   Si       0.07568    0.77395    0.78875    1.000
    Si1104   Si       0.18412    0.74667    0.84004    1.000
    N1105    N        0.14370    0.73865    0.82855    1.000
    N1106    N        0.20577    0.76810    0.80640    1.000
    N1107    N        0.05982    0.75600    0.89934    1.000
    Si1108   Si       0.09794    0.73958    0.98939    1.000
    N1109    N        0.11057    0.76291    0.95451    1.000
    Si1110   Si       0.02185    0.76455    0.88148    1.000
    N1111    N        0.99772    0.73719    0.90349    1.000
    N1112    N        0.05635    0.72830    0.99365    1.000
    Si1113   Si       0.07303    0.71499    0.89240    1.000
    N1114    N        0.20705    0.76758    0.87361    1.000
    N1115    N        0.23665    0.71578    0.91044    1.000
    N1116    N        0.22107    0.77177    0.94688    1.000
    Si1117   Si       0.23794    0.73051    0.95429    1.000
    Si1118   Si       0.13412    0.72916    0.93849    1.000
    N1119    N        0.17230    0.73922    0.92236    1.000
    N1120    N        0.12162    0.77454    0.88708    1.000
    N1121    N        0.09889    0.80302    0.07781    1.000
    N1122    N        0.04974    0.78770    0.03877    1.000
    Si1123   Si       0.05787    0.82261    0.06299    1.000
    N1124    N        0.15913    0.81407    0.04511    1.000
    N1125    N        0.16369    0.81724    0.11519    1.000
    Si1126   Si       0.13551    0.82601    0.08177    1.000
    N1127    N        0.07880    0.78499    0.15854    1.000
    N1128    N        0.01235    0.79723    0.15357    1.000
    Si1129   Si       0.08687    0.82212    0.18240    1.000
    N1130    N        0.06296    0.82617    0.21837    1.000
    Si1131   Si       0.05602    0.78900    0.23951    1.000
    Si1132   Si       0.02950    0.83496    0.14049    1.000
    N1133    N        0.22295    0.82606    0.14724    1.000
    Si1134   Si       0.21979    0.81727    0.18921    1.000
    Si1135   Si       0.15010    0.80058    0.20419    1.000
    N1136    N        0.19016    0.78433    0.19419    1.000
    N1137    N        0.12871    0.83578    0.18445    1.000
    N1138    N        0.15496    0.81749    0.24323    1.000
    N1139    N        0.02122    0.79832    0.26631    1.000
    N1140    N        0.07294    0.81888    0.31576    1.000
    Si1141   Si       0.09528    0.78213    0.30766    1.000
    Si1142   Si       0.03479    0.82685    0.29597    1.000
    N1143    N        0.00527    0.82989    0.32728    1.000
    N1144    N        0.19835    0.78887    0.29471    1.000
    Si1145   Si       0.17788    0.79610    0.33365    1.000
    Si1146   Si       0.16061    0.78775    0.27477    1.000
    N1147    N        0.13835    0.79213    0.31226    1.000
    N1148    N        0.01611    0.77526    0.39182    1.000
    N1149    N        0.08693    0.78804    0.40366    1.000
    Si1150   Si       0.04292    0.79702    0.41614    1.000
    N1151    N        0.05131    0.78027    0.45521    1.000
    Si1152   Si       0.09671    0.83162    0.40606    1.000
    N1153    N        0.14315    0.82228    0.40889    1.000
    N1154    N        0.19089    0.79105    0.44437    1.000
    Si1155   Si       0.15188    0.78278    0.42422    1.000
    Si1156   Si       0.19924    0.82866    0.46469    1.000
    N1157    N        0.08816    0.79630    0.57393    1.000
    N1158    N        0.08267    0.81833    0.50510    1.000
    Si1159   Si       0.10908    0.80186    0.53373    1.000
    Si1160   Si       0.10708    0.77783    0.61051    1.000
    N1161    N        0.01172    0.81450    0.49788    1.000
    Si1162   Si       0.04810    0.79067    0.49618    1.000
    Si1163   Si       0.16888    0.80091    0.57689    1.000
    Si1164   Si       0.22744    0.79876    0.53597    1.000
    N1165    N        0.14524    0.82111    0.54506    1.000
    N1166    N        0.20049    0.81627    0.50746    1.000
    N1167    N        0.20904    0.78550    0.57207    1.000
    N1168    N        0.03178    0.78942    0.66294    1.000
    N1169    N        0.00549    0.81443    0.72911    1.000
    Si1170   Si       0.02032    0.77898    0.70434    1.000
    Si1171   Si       0.21151    0.78713    0.69303    1.000
    Si1172   Si       0.16222    0.80461    0.73103    1.000
    N1173    N        0.20988    0.79537    0.64707    1.000
    N1174    N        0.19143    0.82406    0.70513    1.000
    Si1175   Si       0.11533    0.82850    0.67553    1.000
    N1176    N        0.11625    0.81235    0.63635    1.000
    N1177    N        0.12447    0.80204    0.70574    1.000
    N1178    N        0.03799    0.79325    0.78188    1.000
    N1179    N        0.09447    0.78642    0.82585    1.000
    N1180    N        0.11083    0.78230    0.76452    1.000
    Si1181   Si       0.02993    0.83051    0.76156    1.000
    Si1182   Si       0.13022    0.80672    0.79858    1.000
    Si1183   Si       0.19081    0.81013    0.80678    1.000
    N1184    N        0.15661    0.80864    0.83450    1.000
    N1185    N        0.16543    0.81683    0.77138    1.000
    Si1186   Si       0.02475    0.81440    0.93728    1.000
    N1187    N        0.06737    0.81580    0.92806    1.000
    N1188    N        0.00818    0.80545    0.89476    1.000
    N1189    N        0.01643    0.79496    0.97745    1.000
    Si1190   Si       0.09074    0.78030    0.91663    1.000
    N1191    N        0.17126    0.81598    0.90861    1.000
    Si1192   Si       0.19305    0.77579    0.91336    1.000
    N1193    N        0.18031    0.82130    0.97887    1.000
    Si1194   Si       0.20636    0.78839    0.98525    1.000
    Si1195   Si       0.14331    0.81096    0.87683    1.000
    N1196    N        0.07073    0.85759    0.04286    1.000
    Si1197   Si       0.10646    0.88118    0.04413    1.000
    Si1198   Si       0.04463    0.88299    0.01675    1.000
    N1199    N        0.00961    0.86554    0.00030    1.000
    N1200    N        0.03078    0.83227    0.09635    1.000
    Si1201   Si       0.21538    0.88655    0.05670    1.000
    N1202    N        0.12723    0.86763    0.07815    1.000
    Si1203   Si       0.16761    0.84295    0.01415    1.000
    N1204    N        0.21164    0.86201    0.09267    1.000
    N1205    N        0.20162    0.86839    0.02246    1.000
    N1206    N        0.13209    0.86732    0.01086    1.000
    Si1207   Si       0.04073    0.86494    0.22822    1.000
    N1208    N        0.06391    0.85501    0.15904    1.000
    N1209    N        0.00452    0.87175    0.20584    1.000
    N1210    N        0.99899    0.86504    0.13880    1.000
    Si1211   Si       0.20890    0.89220    0.19016    1.000
    Si1212   Si       0.17483    0.85653    0.24146    1.000
    N1213    N        0.18040    0.88023    0.15822    1.000
    N1214    N        0.15204    0.88842    0.21961    1.000
    N1215    N        0.20659    0.85228    0.21028    1.000
    Si1216   Si       0.18906    0.84876    0.12839    1.000
    Si1217   Si       0.13877    0.87786    0.17720    1.000
    N1218    N        0.03331    0.86308    0.27130    1.000
    Si1219   Si       0.09916    0.85179    0.32737    1.000
    N1220    N        0.10703    0.85322    0.36907    1.000
    N1221    N        0.19288    0.86725    0.27868    1.000
    N1222    N        0.13380    0.87090    0.30877    1.000
    Si1223   Si       0.17676    0.87116    0.31800    1.000
    Si1224   Si       0.23454    0.88013    0.28253    1.000
    N1225    N        0.17733    0.83663    0.34731    1.000
    N1226    N        0.10144    0.86699    0.43518    1.000
    Si1227   Si       0.05937    0.87319    0.44178    1.000
    N1228    N        0.03965    0.87265    0.48273    1.000
    N1229    N        0.04880    0.83943    0.41745    1.000
    Si1230   Si       0.99989    0.85487    0.48665    1.000
    N1231    N        0.23045    0.87486    0.39503    1.000
    Si1232   Si       0.15008    0.85206    0.37770    1.000
    Si1233   Si       0.12834    0.87870    0.47014    1.000
    N1234    N        0.16193    0.85281    0.47447    1.000
    N1235    N        0.23723    0.85028    0.46212    1.000
    N1236    N        0.15925    0.89116    0.38993    1.000
    N1237    N        0.05048    0.85504    0.55624    1.000
    Si1238   Si       0.01654    0.85466    0.58630    1.000
    Si1239   Si       0.06656    0.85785    0.51398    1.000
    N1240    N        0.10243    0.88464    0.50463    1.000
    N1241    N        0.04671    0.83935    0.61551    1.000
    Si1242   Si       0.07758    0.83641    0.58531    1.000
    N1243    N        0.11068    0.86091    0.59302    1.000
    Si1244   Si       0.16568    0.84585    0.51668    1.000
    N1245    N        0.22532    0.88081    0.56958    1.000
    N1246    N        0.17332    0.88548    0.53422    1.000
    Si1247   Si       0.18345    0.87599    0.57508    1.000
    N1248    N        0.17816    0.83755    0.59966    1.000
    Si1249   Si       0.07824    0.87622    0.71397    1.000
    N1250    N        0.01269    0.86100    0.67083    1.000
    N1251    N        0.07903    0.85202    0.67714    1.000
    Si1252   Si       0.04293    0.83232    0.65709    1.000
    Si1253   Si       0.14135    0.84875    0.62142    1.000
    N1254    N        0.21377    0.86706    0.65477    1.000
    N1255    N        0.14374    0.86119    0.66436    1.000
    Si1256   Si       0.18557    0.86343    0.68744    1.000
    Si1257   Si       0.21228    0.83519    0.62580    1.000
    N1258    N        0.01758    0.86248    0.78847    1.000
    N1259    N        0.05861    0.88044    0.83984    1.000
    Si1260   Si       0.09830    0.86251    0.84235    1.000
    Si1261   Si       0.04779    0.89395    0.79872    1.000
    N1262    N        0.06212    0.85092    0.74417    1.000
    N1263    N        0.11381    0.84809    0.80093    1.000
    Si1264   Si       0.22834    0.86078    0.84940    1.000
    N1265    N        0.18855    0.87427    0.86050    1.000
    N1266    N        0.22527    0.83422    0.81306    1.000
    Si1267   Si       0.99207    0.88465    0.96597    1.000
    N1268    N        0.99887    0.87943    0.87207    1.000
    N1269    N        0.06175    0.88255    0.90846    1.000
    Si1270   Si       0.09022    0.85079    0.91332    1.000
    N1271    N        0.99657    0.84705    0.94426    1.000
    N1272    N        0.10956    0.84031    0.87627    1.000
    N1273    N        0.07121    0.89088    0.98003    1.000
    Si1274   Si       0.11357    0.87970    0.97418    1.000
    Si1275   Si       0.16772    0.84373    0.94395    1.000
    N1276    N        0.12383    0.85359    0.94112    1.000
    Si1277   Si       0.22411    0.88073    0.98715    1.000
    N1278    N        0.19273    0.87972    0.95591    1.000
    N1279    N        0.03072    0.91389    0.04886    1.000
    N1280    N        0.09846    0.92282    0.03360    1.000
    Si1281   Si       0.06608    0.93928    0.05860    1.000
    N1282    N        0.07241    0.93592    0.10181    1.000
    N1283    N        0.99890    0.94257    0.10394    1.000
    N1284    N        0.20630    0.92699    0.06817    1.000
    Si1285   Si       0.12678    0.93637    0.00640    1.000
    N1286    N        0.14286    0.93680    0.10017    1.000
    N1287    N        0.16302    0.94570    0.02573    1.000
    N1288    N        0.23473    0.92225    0.00172    1.000
    Si1289   Si       0.03773    0.94830    0.12432    1.000
    Si1290   Si       0.10823    0.93433    0.12668    1.000
    Si1291   Si       0.07700    0.93182    0.23964    1.000
    N1292    N        0.03539    0.92135    0.15853    1.000
    Si1293   Si       0.99978    0.89684    0.16969    1.000
    N1294    N        0.10956    0.90337    0.15774    1.000
    N1295    N        0.06842    0.89606    0.21516    1.000
    Si1296   Si       0.06975    0.89588    0.17236    1.000
    N1297    N        0.20376    0.93026    0.21189    1.000
    Si1298   Si       0.15034    0.92795    0.23433    1.000
    N1299    N        0.04817    0.92931    0.27354    1.000
    N1300    N        0.00334    0.89944    0.32259    1.000
    Si1301   Si       0.03787    0.89632    0.29692    1.000
    N1302    N        0.11247    0.92470    0.26165    1.000
    Si1303   Si       0.10995    0.90774    0.30044    1.000
    N1304    N        0.07513    0.88562    0.31648    1.000
    N1305    N        0.12639    0.93966    0.32387    1.000
    Si1306   Si       0.21799    0.93789    0.32143    1.000
    N1307    N        0.20160    0.90102    0.33947    1.000
    N1308    N        0.23171    0.92388    0.28157    1.000
    Si1309   Si       0.21397    0.94662    0.24999    1.000
    N1310    N        0.04965    0.91687    0.44068    1.000
    N1311    N        0.09456    0.92634    0.38921    1.000
    Si1312   Si       0.03723    0.91806    0.48230    1.000
    N1313    N        0.99598    0.92665    0.49122    1.000
    Si1314   Si       0.06264    0.94767    0.41278    1.000
    N1315    N        0.13687    0.91548    0.44926    1.000
    Si1316   Si       0.12263    0.90124    0.41181    1.000
    N1317    N        0.21100    0.94680    0.39401    1.000
    Si1318   Si       0.19980    0.90638    0.38257    1.000
    N1319    N        0.18979    0.94269    0.48653    1.000
    Si1320   Si       0.10043    0.92295    0.52358    1.000
    Si1321   Si       0.00472    0.93061    0.61104    1.000
    N1322    N        0.10203    0.93006    0.56753    1.000
    N1323    N        0.06377    0.94086    0.50843    1.000
    N1324    N        0.00093    0.89587    0.58461    1.000
    Si1325   Si       0.11808    0.90361    0.59739    1.000
    Si1326   Si       0.22875    0.92289    0.57937    1.000
    Si1327   Si       0.17388    0.92831    0.52495    1.000
    N1328    N        0.19571    0.94431    0.55830    1.000
    N1329    N        0.16154    0.90025    0.60282    1.000
    N1330    N        0.13532    0.94252    0.50925    1.000
    Si1331   Si       0.07263    0.94053    0.64472    1.000
    Si1332   Si       0.01920    0.90274    0.68193    1.000
    N1333    N        0.03234    0.92190    0.64420    1.000
    N1334    N        0.05171    0.91229    0.70862    1.000
    N1335    N        0.10469    0.91191    0.63726    1.000
    N1336    N        0.22397    0.92512    0.62164    1.000
    Si1337   Si       0.18024    0.93049    0.62872    1.000
    Si1338   Si       0.22662    0.91242    0.72412    1.000
    Si1339   Si       0.15164    0.90853    0.73713    1.000
    Si1340   Si       0.12944    0.90291    0.67219    1.000
    N1341    N        0.16624    0.92687    0.66918    1.000
    N1342    N        0.18858    0.89262    0.71973    1.000
    N1343    N        0.11817    0.89337    0.71413    1.000
    N1344    N        0.08628    0.91147    0.78614    1.000
    N1345    N        0.03431    0.93579    0.80179    1.000
    N1346    N        0.03447    0.94282    0.87407    1.000
    Si1347   Si       0.03837    0.89667    0.87496    1.000
    N1348    N        0.15665    0.90895    0.78063    1.000
    Si1349   Si       0.16183    0.90522    0.86502    1.000
    N1350    N        0.17354    0.94171    0.84544    1.000
    Si1351   Si       0.17385    0.94557    0.80254    1.000
    N1352    N        0.12339    0.89607    0.84325    1.000
    Si1353   Si       0.12259    0.89275    0.79723    1.000
    Si1354   Si       0.05636    0.91037    0.94264    1.000
    N1355    N        0.07650    0.94380    0.92748    1.000
    N1356    N        0.01452    0.91673    0.94706    1.000
    Si1357   Si       0.17440    0.91696    0.94463    1.000
    N1358    N        0.16441    0.92277    0.90318    1.000
    N1359    N        0.13389    0.91653    0.96373    1.000
    N1360    N        0.06133    0.97833    0.04066    1.000
    Si1361   Si       0.02869    0.99870    0.02057    1.000
    N1362    N        0.99633    0.99675    0.04622    1.000
    N1363    N        0.10227    0.00530    0.08867    1.000
    Si1364   Si       0.21237    0.00289    0.06023    1.000
    N1365    N        0.17095    0.99377    0.07413    1.000
    N1366    N        0.22033    0.98979    0.01978    1.000
    Si1367   Si       0.20238    0.95231    0.00638    1.000
    N1368    N        0.23686    0.97977    0.08591    1.000
    Si1369   Si       0.16948    0.94905    0.07055    1.000
    N1370    N        0.03710    0.99335    0.12488    1.000
    Si1371   Si       0.07956    0.00479    0.12522    1.000
    N1372    N        0.07940    0.97350    0.22333    1.000
    N1373    N        0.09905    0.97293    0.14897    1.000
    Si1374   Si       0.10960    0.97943    0.19183    1.000
    N1375    N        0.14377    0.95429    0.20059    1.000
    N1376    N        0.18979    0.00348    0.19378    1.000
    N1377    N        0.20676    0.95912    0.14919    1.000
    Si1378   Si       0.23723    0.98247    0.12893    1.000
    Si1379   Si       0.18705    0.96113    0.18655    1.000
    N1380    N        0.07829    0.98060    0.35087    1.000
    Si1381   Si       0.03624    0.98624    0.35852    1.000
    Si1382   Si       0.03289    0.96663    0.28589    1.000
    N1383    N        0.01422    0.96780    0.32578    1.000
    N1384    N        0.06435    0.99431    0.28782    1.000
    N1385    N        0.00103    0.97460    0.25796    1.000
    Si1386   Si       0.11185    0.95526    0.36209    1.000
    Si1387   Si       0.15499    0.96567    0.30142    1.000
    N1388    N        0.18663    0.96610    0.33146    1.000
    N1389    N        0.13229    0.00274    0.30922    1.000
    N1390    N        0.23033    0.98700    0.25058    1.000
    N1391    N        0.17299    0.95147    0.26464    1.000
    Si1392   Si       0.99172    0.96998    0.48962    1.000
    N1393    N        0.02551    0.96021    0.39184    1.000
    N1394    N        0.01814    0.97813    0.45614    1.000
    N1395    N        0.08211    0.98332    0.42494    1.000
    Si1396   Si       0.05260    0.00344    0.44895    1.000
    Si1397   Si       0.99497    0.96565    0.42103    1.000
    N1398    N        0.14355    0.97368    0.38643    1.000
    Si1399   Si       0.15105    0.95045    0.46908    1.000
    Si1400   Si       0.18584    0.97662    0.37253    1.000
    Si1401   Si       0.21788    0.97692    0.48657    1.000
    Si1402   Si       0.12228    0.99968    0.41422    1.000
    N1403    N        0.14652    0.99198    0.45249    1.000
    N1404    N        0.01125    0.98375    0.52536    1.000
    Si1405   Si       0.05515    0.98207    0.51939    1.000
    N1406    N        0.07823    0.99549    0.55537    1.000
    Si1407   Si       0.05211    0.99531    0.59039    1.000
    N1408    N        0.01893    0.96542    0.58985    1.000
    N1409    N        0.08136    0.97559    0.61659    1.000
    Si1410   Si       0.10610    0.96967    0.58071    1.000
    Si1411   Si       0.98880    0.97421    0.56071    1.000
    Si1412   Si       0.18364    0.98022    0.57639    1.000
    N1413    N        0.14161    0.99074    0.56594    1.000
    N1414    N        0.22252    0.00049    0.57386    1.000
    N1415    N        0.17608    0.97093    0.61787    1.000
    N1416    N        0.02359    0.97602    0.70696    1.000
    N1417    N        0.08491    0.96416    0.67953    1.000
    Si1418   Si       0.09108    0.99858    0.65272    1.000
    Si1419   Si       0.05987    0.95448    0.71553    1.000
    N1420    N        0.17100    0.99414    0.68464    1.000
    N1421    N        0.21654    0.95574    0.72246    1.000
    Si1422   Si       0.16662    0.00319    0.64335    1.000
    Si1423   Si       0.17822    0.95439    0.69990    1.000
    Si1424   Si       0.23653    0.99616    0.73273    1.000
    N1425    N        0.14826    0.95078    0.72911    1.000
    N1426    N        0.07856    0.98684    0.81939    1.000
    N1427    N        0.01489    0.99911    0.83814    1.000
    Si1428   Si       0.01680    0.95574    0.83781    1.000
    N1429    N        0.08116    0.96734    0.75043    1.000
    Si1430   Si       0.07107    0.95555    0.79006    1.000
    Si1431   Si       0.05631    0.01368    0.84548    1.000
    Si1432   Si       0.12200    0.99805    0.82204    1.000
    N1433    N        0.15048    0.00024    0.85604    1.000
    N1434    N        0.14123    0.97466    0.79106    1.000
    Si1435   Si       0.12350    0.97791    0.75108    1.000
    N1436    N        0.23825    0.00175    0.84693    1.000
    N1437    N        0.21745    0.95220    0.79808    1.000
    Si1438   Si       0.05289    0.97152    0.90293    1.000
    N1439    N        0.02447    0.98984    0.92831    1.000
    N1440    N        0.07667    0.00201    0.88330    1.000
    Si1441   Si       0.99974    0.95856    0.94954    1.000
    N1442    N        0.00463    0.96956    0.99264    1.000
    N1443    N        0.11067    0.96990    0.98189    1.000
    Si1444   Si       0.24043    0.97911    0.88339    1.000
    N1445    N        0.13663    0.98136    0.91670    1.000
    N1446    N        0.20174    0.97912    0.90158    1.000
    Si1447   Si       0.16445    0.96568    0.88371    1.000
    Si1448   Si       0.18455    0.99264    0.94045    1.000
    N1449    N        0.18751    0.95724    0.96488    1.000
    Si1450   Si       0.11596    0.95329    0.94260    1.000
    N1451    N        0.35255    0.03584    0.10799    1.000
    Si1452   Si       0.31495    0.04696    0.08403    1.000
    N1453    N        0.28115    0.05329    0.11070    1.000
    N1454    N        0.24905    0.05327    0.00768    1.000
    N1455    N        0.30152    0.01662    0.05665    1.000
    N1456    N        0.36960    0.02694    0.03920    1.000
    N1457    N        0.43687    0.04682    0.01697    1.000
    N1458    N        0.41975    0.04862    0.08827    1.000
    Si1459   Si       0.38407    0.02558    0.07988    1.000
    Si1460   Si       0.44218    0.04353    0.12405    1.000
    Si1461   Si       0.32023    0.03109    0.21055    1.000
    N1462    N        0.31438    0.03730    0.16660    1.000
    Si1463   Si       0.27283    0.03557    0.15108    1.000
    Si1464   Si       0.35579    0.03908    0.15259    1.000
    N1465    N        0.27554    0.01728    0.21486    1.000
    Si1466   Si       0.26335    0.05995    0.21623    1.000
    N1467    N        0.36535    0.04074    0.20095    1.000
    N1468    N        0.25263    0.06953    0.17537    1.000
    N1469    N        0.47036    0.03532    0.22891    1.000
    Si1470   Si       0.43239    0.03769    0.20747    1.000
    N1471    N        0.43149    0.05382    0.16698    1.000
    Si1472   Si       0.31849    0.04579    0.34251    1.000
    N1473    N        0.36090    0.04127    0.33256    1.000
    N1474    N        0.29552    0.06303    0.31099    1.000
    N1475    N        0.29398    0.01258    0.35388    1.000
    Si1476   Si       0.48423    0.05141    0.26740    1.000
    Si1477   Si       0.38435    0.02155    0.30302    1.000
    Si1478   Si       0.44781    0.03319    0.33339    1.000
    N1479    N        0.39576    0.04433    0.26893    1.000
    N1480    N        0.47161    0.02331    0.29892    1.000
    N1481    N        0.47172    0.03413    0.37022    1.000
    N1482    N        0.29307    0.03361    0.42495    1.000
    Si1483   Si       0.27241    0.02300    0.46264    1.000
    N1484    N        0.31080    0.02516    0.48827    1.000
    Si1485   Si       0.34386    0.01596    0.46085    1.000
    N1486    N        0.24488    0.05670    0.46611    1.000
    N1487    N        0.36684    0.05044    0.44863    1.000
    N1488    N        0.47522    0.01753    0.43419    1.000
    Si1489   Si       0.47090    0.05915    0.44361    1.000
    N1490    N        0.41044    0.01783    0.40491    1.000
    N1491    N        0.47596    0.06030    0.48758    1.000
    Si1492   Si       0.40094    0.05645    0.42136    1.000
    N1493    N        0.25550    0.02457    0.52439    1.000
    Si1494   Si       0.31099    0.02872    0.53245    1.000
    N1495    N        0.35361    0.03134    0.54688    1.000
    Si1496   Si       0.25543    0.05826    0.55604    1.000
    N1497    N        0.33377    0.05527    0.61121    1.000
    N1498    N        0.24827    0.05598    0.59885    1.000
    Si1499   Si       0.36540    0.03463    0.58912    1.000
    N1500    N        0.29756    0.06901    0.55118    1.000
    N1501    N        0.40551    0.04648    0.60038    1.000
    N1502    N        0.41027    0.05099    0.51289    1.000
    Si1503   Si       0.45293    0.05110    0.52287    1.000
    N1504    N        0.46697    0.01607    0.54266    1.000
    Si1505   Si       0.38651    0.01543    0.52333    1.000
    Si1506   Si       0.33606    0.05419    0.65460    1.000
    Si1507   Si       0.28558    0.05449    0.70843    1.000
    N1508    N        0.32643    0.01511    0.67214    1.000
    N1509    N        0.26508    0.01431    0.70257    1.000
    N1510    N        0.31590    0.04801    0.73968    1.000
    N1511    N        0.40980    0.02379    0.66838    1.000
    N1512    N        0.38965    0.06446    0.73074    1.000
    Si1513   Si       0.40471    0.06281    0.68853    1.000
    Si1514   Si       0.42900    0.02146    0.62952    1.000
    N1515    N        0.47176    0.03751    0.63422    1.000
    Si1516   Si       0.29896    0.05311    0.83893    1.000
    N1517    N        0.31417    0.02648    0.80849    1.000
    Si1518   Si       0.35623    0.01969    0.81838    1.000
    Si1519   Si       0.30242    0.01413    0.76834    1.000
    N1520    N        0.25824    0.06847    0.83869    1.000
    N1521    N        0.36727    0.05290    0.84444    1.000
    N1522    N        0.44808    0.04171    0.75344    1.000
    N1523    N        0.37791    0.02333    0.78144    1.000
    Si1524   Si       0.40701    0.05446    0.76846    1.000
    Si1525   Si       0.41131    0.05671    0.84362    1.000
    N1526    N        0.42861    0.01847    0.85091    1.000
    Si1527   Si       0.46571    0.01339    0.83136    1.000
    N1528    N        0.48103    0.05381    0.81846    1.000
    Si1529   Si       0.47933    0.01239    0.76586    1.000
    N1530    N        0.31229    0.03112    0.87390    1.000
    Si1531   Si       0.25008    0.03622    0.93138    1.000
    Si1532   Si       0.35085    0.03987    0.88667    1.000
    N1533    N        0.34830    0.06045    0.92451    1.000
    N1534    N        0.27811    0.06469    0.94843    1.000
    Si1535   Si       0.24754    0.01035    0.99493    1.000
    Si1536   Si       0.43820    0.06606    0.91541    1.000
    N1537    N        0.41747    0.05120    0.95069    1.000
    Si1538   Si       0.37675    0.03577    0.94971    1.000
    N1539    N        0.47014    0.03583    0.91138    1.000
    N1540    N        0.38038    0.01005    0.90464    1.000
    N1541    N        0.33042    0.07992    0.06199    1.000
    Si1542   Si       0.31956    0.12159    0.06804    1.000
    N1543    N        0.31448    0.07593    0.00016    1.000
    Si1544   Si       0.35186    0.06785    0.02478    1.000
    N1545    N        0.39495    0.09083    0.03837    1.000
    N1546    N        0.46710    0.09732    0.05187    1.000
    Si1547   Si       0.48755    0.10625    0.09248    1.000
    Si1548   Si       0.43259    0.07104    0.05274    1.000
    N1549    N        0.39818    0.12409    0.09985    1.000
    N1550    N        0.46750    0.07996    0.12176    1.000
    Si1551   Si       0.32178    0.10810    0.23510    1.000
    N1552    N        0.25304    0.11760    0.22191    1.000
    N1553    N        0.30536    0.06922    0.22719    1.000
    Si1554   Si       0.36623    0.12250    0.13135    1.000
    N1555    N        0.36369    0.10223    0.23125    1.000
    Si1556   Si       0.38099    0.08295    0.19689    1.000
    Si1557   Si       0.46369    0.10401    0.22745    1.000
    N1558    N        0.42185    0.08452    0.22104    1.000
    Si1559   Si       0.45526    0.09107    0.16112    1.000
    N1560    N        0.36755    0.08529    0.15451    1.000
    N1561    N        0.48662    0.09402    0.19236    1.000
    Si1562   Si       0.28254    0.10223    0.30139    1.000
    Si1563   Si       0.32389    0.11285    0.35971    1.000
    N1564    N        0.30440    0.12492    0.27195    1.000
    N1565    N        0.35963    0.10857    0.33527    1.000
    Si1566   Si       0.44108    0.10030    0.30416    1.000
    N1567    N        0.46739    0.09220    0.27019    1.000
    N1568    N        0.40340    0.11511    0.28570    1.000
    Si1569   Si       0.38295    0.07563    0.34939    1.000
    Si1570   Si       0.39599    0.08597    0.25589    1.000
    N1571    N        0.42363    0.07018    0.33236    1.000
    N1572    N        0.31872    0.07385    0.37685    1.000
    N1573    N        0.31182    0.09894    0.45170    1.000
    Si1574   Si       0.35242    0.08829    0.46618    1.000
    N1575    N        0.26192    0.09796    0.40798    1.000
    Si1576   Si       0.29857    0.07656    0.41504    1.000
    N1577    N        0.25234    0.12636    0.46994    1.000
    N1578    N        0.38474    0.08470    0.39091    1.000
    Si1579   Si       0.37914    0.12430    0.40617    1.000
    Si1580   Si       0.44459    0.12322    0.41893    1.000
    N1581    N        0.37747    0.11855    0.44951    1.000
    N1582    N        0.43727    0.08040    0.42999    1.000
    Si1583   Si       0.30990    0.08717    0.59172    1.000
    Si1584   Si       0.31830    0.10384    0.53274    1.000
    N1585    N        0.35433    0.09444    0.50909    1.000
    N1586    N        0.32929    0.12020    0.57141    1.000
    N1587    N        0.28311    0.10944    0.61942    1.000
    Si1588   Si       0.24370    0.09257    0.62128    1.000
    N1589    N        0.39099    0.10330    0.56631    1.000
    Si1590   Si       0.39482    0.09115    0.52425    1.000
    Si1591   Si       0.42427    0.08212    0.58635    1.000
    N1592    N        0.45431    0.07897    0.55387    1.000
    N1593    N        0.41773    0.12647    0.50999    1.000
    N1594    N        0.30134    0.07556    0.67275    1.000
    N1595    N        0.34897    0.11494    0.71939    1.000
    Si1596   Si       0.29395    0.11691    0.66077    1.000
    N1597    N        0.25000    0.07549    0.71870    1.000
    Si1598   Si       0.36087    0.12061    0.67746    1.000
    Si1599   Si       0.34769    0.07486    0.74132    1.000
    N1600    N        0.37075    0.07957    0.66496    1.000
    N1601    N        0.44376    0.08015    0.68916    1.000
    N1602    N        0.44056    0.10183    0.62240    1.000
    Si1603   Si       0.46798    0.07080    0.72690    1.000
    Si1604   Si       0.46634    0.07927    0.65174    1.000
    Si1605   Si       0.27178    0.11104    0.83906    1.000
    N1606    N        0.31384    0.09351    0.83023    1.000
    Si1607   Si       0.35712    0.09258    0.82334    1.000
    N1608    N        0.35904    0.09686    0.77983    1.000
    N1609    N        0.36756    0.11986    0.85491    1.000
    Si1610   Si       0.46221    0.08801    0.79750    1.000
    N1611    N        0.47560    0.10046    0.75840    1.000
    N1612    N        0.47469    0.11983    0.82644    1.000
    N1613    N        0.42231    0.07410    0.80426    1.000
    Si1614   Si       0.33396    0.08085    0.95997    1.000
    Si1615   Si       0.27319    0.08202    0.98704    1.000
    N1616    N        0.26004    0.12406    0.98453    1.000
    N1617    N        0.32943    0.12444    0.95376    1.000
    N1618    N        0.41908    0.08059    0.87930    1.000
    N1619    N        0.46680    0.09741    0.92800    1.000
    Si1620   Si       0.41179    0.07354    0.99167    1.000
    N1621    N        0.43413    0.11080    0.98945    1.000
    Si1622   Si       0.43898    0.12446    0.94673    1.000
    Si1623   Si       0.40096    0.12268    0.88287    1.000
    N1624    N        0.39920    0.12512    0.92834    1.000
    N1625    N        0.37005    0.06828    0.98390    1.000
    N1626    N        0.35133    0.14463    0.04915    1.000
    Si1627   Si       0.24864    0.13486    0.02669    1.000
    N1628    N        0.32716    0.13005    0.11184    1.000
    N1629    N        0.26754    0.18161    0.10233    1.000
    Si1630   Si       0.34202    0.18091    0.03106    1.000
    N1631    N        0.31227    0.17518    0.00068    1.000
    N1632    N        0.28409    0.13087    0.04858    1.000
    N1633    N        0.48112    0.15768    0.00650    1.000
    N1634    N        0.47659    0.14558    0.10633    1.000
    N1635    N        0.42325    0.15582    0.04492    1.000
    Si1636   Si       0.38995    0.12949    0.05753    1.000
    Si1637   Si       0.45234    0.13007    0.02414    1.000
    Si1638   Si       0.43363    0.14279    0.11763    1.000
    N1639    N        0.42230    0.18472    0.11919    1.000
    N1640    N        0.26223    0.14149    0.15497    1.000
    Si1641   Si       0.34270    0.16679    0.18678    1.000
    N1642    N        0.31400    0.13959    0.20392    1.000
    Si1643   Si       0.29702    0.15735    0.12886    1.000
    Si1644   Si       0.27162    0.14906    0.19818    1.000
    N1645    N        0.31611    0.18337    0.15631    1.000
    N1646    N        0.44120    0.13074    0.15947    1.000
    N1647    N        0.37540    0.15409    0.16129    1.000
    Si1648   Si       0.45932    0.15982    0.18548    1.000
    N1649    N        0.46557    0.15002    0.22714    1.000
    Si1650   Si       0.26860    0.16246    0.35147    1.000
    N1651    N        0.34744    0.16864    0.29507    1.000
    Si1652   Si       0.30438    0.16397    0.29036    1.000
    N1653    N        0.29123    0.12937    0.33653    1.000
    Si1654   Si       0.43270    0.16010    0.35388    1.000
    N1655    N        0.39645    0.17019    0.33291    1.000
    Si1656   Si       0.37610    0.13941    0.30940    1.000
    N1657    N        0.45682    0.12932    0.33316    1.000
    Si1658   Si       0.47423    0.18435    0.25247    1.000
    Si1659   Si       0.32105    0.17246    0.40954    1.000
    N1660    N        0.30232    0.16925    0.44861    1.000
    N1661    N        0.34030    0.13678    0.39316    1.000
    N1662    N        0.28627    0.18244    0.38502    1.000
    Si1663   Si       0.29551    0.13269    0.47163    1.000
    N1664    N        0.38300    0.18055    0.47863    1.000
    N1665    N        0.48203    0.13063    0.39638    1.000
    N1666    N        0.41482    0.14457    0.39134    1.000
    N1667    N        0.44318    0.14807    0.45439    1.000
    Si1668   Si       0.47969    0.16560    0.46953    1.000
    Si1669   Si       0.40349    0.14351    0.47224    1.000
    N1670    N        0.30462    0.14136    0.51374    1.000
    Si1671   Si       0.30932    0.18231    0.53298    1.000
    N1672    N        0.35175    0.18067    0.54795    1.000
    Si1673   Si       0.36665    0.14124    0.57021    1.000
    N1674    N        0.47387    0.17663    0.51134    1.000
    N1675    N        0.46896    0.14136    0.56698    1.000
    Si1676   Si       0.44290    0.15177    0.53363    1.000
    N1677    N        0.39009    0.15957    0.60309    1.000
    Si1678   Si       0.48120    0.17122    0.59527    1.000
    N1679    N        0.41711    0.18637    0.54275    1.000
    N1680    N        0.32685    0.14562    0.65992    1.000
    N1681    N        0.26332    0.13519    0.68803    1.000
    Si1682   Si       0.24841    0.17357    0.67556    1.000
    N1683    N        0.26686    0.18659    0.64024    1.000
    N1684    N        0.40301    0.15132    0.74015    1.000
    N1685    N        0.44791    0.17170    0.62471    1.000
    N1686    N        0.39790    0.14241    0.66881    1.000
    Si1687   Si       0.41855    0.13953    0.62959    1.000
    Si1688   Si       0.40751    0.16948    0.70154    1.000
    N1689    N        0.34612    0.16400    0.77429    1.000
    Si1690   Si       0.30923    0.16421    0.79975    1.000
    N1691    N        0.27340    0.13822    0.80455    1.000
    Si1692   Si       0.24779    0.16944    0.78742    1.000
    N1693    N        0.32292    0.17838    0.83805    1.000
    Si1694   Si       0.33295    0.14565    0.86828    1.000
    Si1695   Si       0.44938    0.15406    0.83632    1.000
    N1696    N        0.41609    0.14692    0.80695    1.000
    Si1697   Si       0.42562    0.17268    0.77332    1.000
    N1698    N        0.46639    0.17526    0.75972    1.000
    Si1699   Si       0.36884    0.13198    0.75752    1.000
    N1700    N        0.29097    0.13145    0.87757    1.000
    Si1701   Si       0.26176    0.15320    0.90188    1.000
    Si1702   Si       0.29499    0.14837    0.97012    1.000
    N1703    N        0.28493    0.17373    0.93315    1.000
    N1704    N        0.35251    0.16645    0.90198    1.000
    N1705    N        0.23902    0.18193    0.87839    1.000
    Si1706   Si       0.36317    0.14749    0.94072    1.000
    Si1707   Si       0.44302    0.18370    0.90427    1.000
    N1708    N        0.43224    0.15214    0.87528    1.000
    N1709    N        0.37862    0.17784    0.96734    1.000
    N1710    N        0.45333    0.16585    0.94225    1.000
    N1711    N        0.32461    0.20795    0.06128    1.000
    Si1712   Si       0.29008    0.21616    0.08720    1.000
    N1713    N        0.25817    0.22974    0.06073    1.000
    Si1714   Si       0.35729    0.23747    0.05427    1.000
    N1715    N        0.30358    0.24086    0.12033    1.000
    N1716    N        0.37795    0.20716    0.02734    1.000
    N1717    N        0.44682    0.22430    0.06186    1.000
    Si1718   Si       0.42165    0.19866    0.03704    1.000
    Si1719   Si       0.45064    0.21392    0.10430    1.000
    Si1720   Si       0.32860    0.22543    0.15091    1.000
    Si1721   Si       0.27113    0.21147    0.23777    1.000
    N1722    N        0.25781    0.18998    0.20349    1.000
    N1723    N        0.36117    0.18882    0.21880    1.000
    Si1724   Si       0.39846    0.18994    0.15487    1.000
    N1725    N        0.43007    0.19329    0.18495    1.000
    N1726    N        0.37193    0.22237    0.15400    1.000
    Si1727   Si       0.42757    0.23121    0.20871    1.000
    Si1728   Si       0.48127    0.24809    0.23702    1.000
    N1729    N        0.34105    0.21876    0.34549    1.000
    Si1730   Si       0.29808    0.23006    0.33305    1.000
    Si1731   Si       0.34654    0.19528    0.25814    1.000
    N1732    N        0.30354    0.19097    0.25602    1.000
    N1733    N        0.28106    0.19056    0.31948    1.000
    Si1734   Si       0.36831    0.19971    0.31908    1.000
    N1735    N        0.37140    0.22450    0.28150    1.000
    Si1736   Si       0.41482    0.23642    0.27542    1.000
    Si1737   Si       0.43981    0.23387    0.35574    1.000
    N1738    N        0.45988    0.19517    0.35288    1.000
    N1739    N        0.42848    0.24412    0.31532    1.000
    N1740    N        0.44485    0.22043    0.24850    1.000
    N1741    N        0.24677    0.19559    0.48557    1.000
    N1742    N        0.35246    0.20041    0.41238    1.000
    Si1743   Si       0.35950    0.22947    0.38152    1.000
    Si1744   Si       0.26172    0.21713    0.39560    1.000
    Si1745   Si       0.28592    0.20463    0.46803    1.000
    N1746    N        0.27270    0.22989    0.43466    1.000
    N1747    N        0.40182    0.23790    0.37621    1.000
    Si1748   Si       0.45145    0.23268    0.45949    1.000
    Si1749   Si       0.37253    0.21517    0.45103    1.000
    N1750    N        0.48378    0.20546    0.45316    1.000
    N1751    N        0.41080    0.23263    0.43956    1.000
    Si1752   Si       0.26050    0.20314    0.60040    1.000
    Si1753   Si       0.35235    0.21292    0.58039    1.000
    N1754    N        0.32679    0.20232    0.61289    1.000
    N1755    N        0.31053    0.21407    0.50246    1.000
    N1756    N        0.27606    0.19211    0.56105    1.000
    Si1757   Si       0.46191    0.21258    0.53261    1.000
    N1758    N        0.46349    0.20706    0.57676    1.000
    N1759    N        0.39244    0.22517    0.59768    1.000
    Si1760   Si       0.38103    0.19515    0.51892    1.000
    N1761    N        0.37483    0.23914    0.50949    1.000
    N1762    N        0.44177    0.23554    0.49938    1.000
    Si1763   Si       0.42076    0.19163    0.58889    1.000
    Si1764   Si       0.27475    0.23792    0.70401    1.000
    N1765    N        0.30858    0.21732    0.68601    1.000
    Si1766   Si       0.34871    0.23343    0.70204    1.000
    N1767    N        0.24376    0.20812    0.70459    1.000
    Si1768   Si       0.31070    0.18861    0.65142    1.000
    N1769    N        0.42839    0.23508    0.65670    1.000
    N1770    N        0.44335    0.23865    0.73239    1.000
    Si1771   Si       0.46895    0.20351    0.72654    1.000
    N1772    N        0.37761    0.20048    0.70827    1.000
    Si1773   Si       0.45645    0.20098    0.65401    1.000
    N1774    N        0.44843    0.18310    0.69265    1.000
    Si1775   Si       0.31809    0.21938    0.84940    1.000
    Si1776   Si       0.30198    0.23334    0.77338    1.000
    N1777    N        0.28052    0.19498    0.78297    1.000
    N1778    N        0.35761    0.23132    0.86679    1.000
    N1779    N        0.33368    0.22130    0.74842    1.000
    Si1780   Si       0.24745    0.22482    0.87311    1.000
    Si1781   Si       0.36670    0.19479    0.75052    1.000
    N1782    N        0.40155    0.20818    0.77364    1.000
    Si1783   Si       0.46639    0.22786    0.84993    1.000
    N1784    N        0.46660    0.19145    0.82616    1.000
    N1785    N        0.27764    0.23570    0.95237    1.000
    N1786    N        0.29036    0.22557    0.88229    1.000
    N1787    N        0.34063    0.22384    0.93141    1.000
    Si1788   Si       0.29955    0.21324    0.92415    1.000
    N1789    N        0.47709    0.20640    0.88835    1.000
    Si1790   Si       0.46325    0.18597    0.98022    1.000
    Si1791   Si       0.38801    0.21626    0.98401    1.000
    N1792    N        0.43133    0.21371    0.99415    1.000
    Si1793   Si       0.36885    0.20684    0.90413    1.000
    N1794    N        0.41184    0.21181    0.91106    1.000
    N1795    N        0.34600    0.27442    0.03272    1.000
    N1796    N        0.29507    0.29270    0.07814    1.000
    N1797    N        0.28256    0.27244    0.00977    1.000
    Si1798   Si       0.30774    0.29137    0.03941    1.000
    Si1799   Si       0.29844    0.28309    0.12087    1.000
    Si1800   Si       0.24817    0.24783    0.02011    1.000
    Si1801   Si       0.37218    0.29261    0.00545    1.000
    N1802    N        0.46013    0.27518    0.01447    1.000
    Si1803   Si       0.40843    0.26970    0.11180    1.000
    Si1804   Si       0.45953    0.26613    0.05697    1.000
    N1805    N        0.43286    0.29248    0.08246    1.000
    N1806    N        0.37905    0.24923    0.08830    1.000
    Si1807   Si       0.31331    0.28499    0.21578    1.000
    N1808    N        0.33004    0.25987    0.17992    1.000
    N1809    N        0.28647    0.25080    0.23152    1.000
    N1810    N        0.27538    0.29814    0.15489    1.000
    Si1811   Si       0.47677    0.24577    0.15424    1.000
    Si1812   Si       0.37273    0.26400    0.16978    1.000
    N1813    N        0.43931    0.24544    0.13101    1.000
    Si1814   Si       0.38379    0.28917    0.23452    1.000
    N1815    N        0.38577    0.29167    0.14072    1.000
    N1816    N        0.46603    0.25218    0.19515    1.000
    N1817    N        0.39659    0.26028    0.20657    1.000
    Si1818   Si       0.34588    0.26106    0.28942    1.000
    Si1819   Si       0.27742    0.27522    0.26917    1.000
    N1820    N        0.30448    0.25915    0.30014    1.000
    Si1821   Si       0.34974    0.29671    0.35823    1.000
    N1822    N        0.27577    0.24665    0.36594    1.000
    N1823    N        0.23925    0.27600    0.28788    1.000
    N1824    N        0.34460    0.27854    0.24876    1.000
    N1825    N        0.36636    0.27891    0.32198    1.000
    N1826    N        0.40962    0.28222    0.26872    1.000
    Si1827   Si       0.40827    0.28264    0.31367    1.000
    Si1828   Si       0.27995    0.28803    0.37666    1.000
    Si1829   Si       0.25588    0.26862    0.44054    1.000
    N1830    N        0.34603    0.26977    0.39286    1.000
    N1831    N        0.28735    0.29297    0.41991    1.000
    Si1832   Si       0.33077    0.27924    0.43265    1.000
    N1833    N        0.34173    0.24650    0.45700    1.000
    N1834    N        0.41041    0.30499    0.41375    1.000
    N1835    N        0.45589    0.26496    0.38468    1.000
    N1836    N        0.46786    0.27304    0.44754    1.000
    N1837    N        0.41497    0.29670    0.48229    1.000
    Si1838   Si       0.42031    0.26210    0.40745    1.000
    Si1839   Si       0.28148    0.27663    0.60335    1.000
    Si1840   Si       0.33142    0.28621    0.56931    1.000
    N1841    N        0.32411    0.28078    0.61247    1.000
    N1842    N        0.28855    0.29315    0.56259    1.000
    Si1843   Si       0.33164    0.25128    0.50344    1.000
    N1844    N        0.30974    0.28911    0.49945    1.000
    N1845    N        0.33303    0.24504    0.55853    1.000
    N1846    N        0.25150    0.24658    0.61000    1.000
    N1847    N        0.48178    0.28334    0.58936    1.000
    N1848    N        0.42206    0.27294    0.55152    1.000
    Si1849   Si       0.40861    0.26426    0.51117    1.000
    Si1850   Si       0.46544    0.28085    0.54734    1.000
    Si1851   Si       0.40162    0.30067    0.57988    1.000
    N1852    N        0.34372    0.27646    0.71446    1.000
    Si1853   Si       0.35088    0.28909    0.64504    1.000
    N1854    N        0.27769    0.27965    0.68696    1.000
    Si1855   Si       0.24778    0.30226    0.66803    1.000
    N1856    N        0.36166    0.25023    0.65997    1.000
    Si1857   Si       0.31379    0.30423    0.69895    1.000
    Si1858   Si       0.39470    0.24671    0.63469    1.000
    N1859    N        0.41332    0.29188    0.69579    1.000
    Si1860   Si       0.38117    0.29593    0.72470    1.000
    N1861    N        0.39471    0.29147    0.62539    1.000
    N1862    N        0.48053    0.26267    0.69009    1.000
    Si1863   Si       0.43855    0.25723    0.69405    1.000
    Si1864   Si       0.31594    0.28900    0.82802    1.000
    N1865    N        0.27613    0.29846    0.83853    1.000
    N1866    N        0.33509    0.30355    0.86540    1.000
    N1867    N        0.31427    0.24602    0.81411    1.000
    N1868    N        0.27339    0.25073    0.74551    1.000
    Si1869   Si       0.42159    0.24551    0.76778    1.000
    Si1870   Si       0.36849    0.27407    0.86808    1.000
    Si1871   Si       0.43216    0.28238    0.83292    1.000
    N1872    N        0.38901    0.28678    0.83190    1.000
    N1873    N        0.39468    0.27857    0.76287    1.000
    N1874    N        0.44734    0.25790    0.80088    1.000
    N1875    N        0.43782    0.25860    0.86741    1.000
    Si1876   Si       0.49065    0.26147    0.79394    1.000
    N1877    N        0.31867    0.28807    0.94429    1.000
    Si1878   Si       0.28433    0.27583    0.96647    1.000
    Si1879   Si       0.35537    0.26479    0.94072    1.000
    N1880    N        0.24498    0.28910    0.95469    1.000
    N1881    N        0.37926    0.25884    0.97592    1.000
    Si1882   Si       0.45719    0.24899    0.98103    1.000
    N1883    N        0.44965    0.26665    0.94240    1.000
    Si1884   Si       0.42407    0.25364    0.90837    1.000
    N1885    N        0.38490    0.27248    0.90843    1.000
    Si1886   Si       0.30533    0.33708    0.08371    1.000
    N1887    N        0.31171    0.33852    0.03997    1.000
    N1888    N        0.26751    0.35333    0.09754    1.000
    Si1889   Si       0.32232    0.34852    0.99904    1.000
    N1890    N        0.40575    0.30793    0.02624    1.000
    N1891    N        0.38614    0.34533    0.09183    1.000
    Si1892   Si       0.41520    0.32715    0.06341    1.000
    Si1893   Si       0.45085    0.31855    0.01103    1.000
    N1894    N        0.44659    0.35197    0.04667    1.000
    N1895    N        0.48959    0.34018    0.00738    1.000
    N1896    N        0.32611    0.31919    0.12408    1.000
    Si1897   Si       0.30597    0.32743    0.16152    1.000
    N1898    N        0.32985    0.32045    0.19607    1.000
    Si1899   Si       0.36055    0.34977    0.19819    1.000
    N1900    N        0.28594    0.31148    0.24487    1.000
    Si1901   Si       0.36874    0.32919    0.12864    1.000
    Si1902   Si       0.48503    0.36219    0.18658    1.000
    N1903    N        0.38885    0.33151    0.22550    1.000
    N1904    N        0.37977    0.35781    0.15904    1.000
    Si1905   Si       0.42294    0.35564    0.23353    1.000
    Si1906   Si       0.30069    0.34627    0.32750    1.000
    Si1907   Si       0.26376    0.34756    0.25577    1.000
    N1908    N        0.26678    0.33914    0.30153    1.000
    N1909    N        0.30845    0.31084    0.35272    1.000
    N1910    N        0.24431    0.30571    0.36026    1.000
    N1911    N        0.33807    0.35828    0.30708    1.000
    N1912    N        0.45135    0.33944    0.26330    1.000
    Si1913   Si       0.44029    0.34407    0.30530    1.000
    N1914    N        0.42810    0.31274    0.33452    1.000
    N1915    N        0.37389    0.33424    0.36393    1.000
    Si1916   Si       0.48892    0.31660    0.25089    1.000
    N1917    N        0.47543    0.36312    0.32661    1.000
    Si1918   Si       0.27487    0.33407    0.43364    1.000
    Si1919   Si       0.32262    0.33420    0.48632    1.000
    N1920    N        0.30561    0.35802    0.45338    1.000
    N1921    N        0.34939    0.31276    0.45243    1.000
    N1922    N        0.24563    0.32426    0.46498    1.000
    Si1923   Si       0.24789    0.35781    0.49259    1.000
    Si1924   Si       0.45837    0.30564    0.47478    1.000
    N1925    N        0.46720    0.34069    0.45123    1.000
    N1926    N        0.39966    0.36078    0.45418    1.000
    Si1927   Si       0.41578    0.32612    0.37507    1.000
    Si1928   Si       0.39154    0.31788    0.45094    1.000
    N1929    N        0.43680    0.36266    0.38656    1.000
    N1930    N        0.28601    0.34589    0.51712    1.000
    Si1931   Si       0.35480    0.35919    0.55131    1.000
    N1932    N        0.35249    0.35480    0.50767    1.000
    Si1933   Si       0.24878    0.34853    0.61412    1.000
    N1934    N        0.24576    0.36108    0.57321    1.000
    N1935    N        0.36356    0.31646    0.56353    1.000
    Si1936   Si       0.27631    0.30209    0.52374    1.000
    N1937    N        0.43341    0.32862    0.58197    1.000
    Si1938   Si       0.47040    0.32087    0.60599    1.000
    N1939    N        0.47817    0.30981    0.51552    1.000
    N1940    N        0.26383    0.30997    0.62616    1.000
    N1941    N        0.33716    0.32331    0.66781    1.000
    N1942    N        0.29979    0.33102    0.72882    1.000
    Si1943   Si       0.26368    0.35921    0.72076    1.000
    N1944    N        0.24257    0.34012    0.68776    1.000
    Si1945   Si       0.35948    0.36224    0.66965    1.000
    N1946    N        0.45857    0.32252    0.64823    1.000
    N1947    N        0.40181    0.35263    0.66904    1.000
    N1948    N        0.36922    0.33445    0.73843    1.000
    Si1949   Si       0.48898    0.34309    0.67285    1.000
    Si1950   Si       0.41682    0.31489    0.65730    1.000
    Si1951   Si       0.26244    0.33477    0.85855    1.000
    Si1952   Si       0.33180    0.33680    0.75851    1.000
    N1953    N        0.33526    0.31114    0.79300    1.000
    Si1954   Si       0.32814    0.34514    0.87117    1.000
    Si1955   Si       0.43966    0.35020    0.80336    1.000
    N1956    N        0.39421    0.34696    0.79779    1.000
    N1957    N        0.45440    0.32110    0.83178    1.000
    N1958    N        0.44362    0.34304    0.75916    1.000
    Si1959   Si       0.47505    0.33444    0.86718    1.000
    Si1960   Si       0.48570    0.33331    0.75425    1.000
    Si1961   Si       0.40278    0.35629    0.75403    1.000
    Si1962   Si       0.37796    0.30505    0.79312    1.000
    N1963    N        0.29106    0.34175    0.96983    1.000
    Si1964   Si       0.30569    0.32818    0.93105    1.000
    N1965    N        0.35913    0.32961    0.98652    1.000
    N1966    N        0.27034    0.32771    0.90270    1.000
    N1967    N        0.33318    0.35647    0.91449    1.000
    Si1968   Si       0.25141    0.35581    0.97532    1.000
    Si1969   Si       0.39819    0.34857    0.97461    1.000
    N1970    N        0.43595    0.32589    0.96979    1.000
    N1971    N        0.44984    0.33113    0.90293    1.000
    Si1972   Si       0.46263    0.30894    0.93959    1.000
    N1973    N        0.32148    0.37956    0.09592    1.000
    Si1974   Si       0.31753    0.39707    0.05203    1.000
    N1975    N        0.32290    0.39376    0.00554    1.000
    N1976    N        0.35971    0.40304    0.05465    1.000
    Si1977   Si       0.28649    0.38254    0.12190    1.000
    Si1978   Si       0.36481    0.38595    0.09501    1.000
    Si1979   Si       0.36825    0.41116    0.00963    1.000
    Si1980   Si       0.43122    0.39261    0.03366    1.000
    Si1981   Si       0.45527    0.41248    0.10155    1.000
    N1982    N        0.42368    0.40699    0.07249    1.000
    N1983    N        0.40161    0.37903    0.00459    1.000
    N1984    N        0.37596    0.42312    0.11091    1.000
    N1985    N        0.25792    0.41677    0.12402    1.000
    N1986    N        0.27619    0.38455    0.23035    1.000
    N1987    N        0.29641    0.37012    0.16218    1.000
    Si1988   Si       0.30246    0.39285    0.19837    1.000
    N1989    N        0.34672    0.38859    0.21069    1.000
    N1990    N        0.44160    0.36370    0.19630    1.000
    N1991    N        0.44497    0.39371    0.13832    1.000
    Si1992   Si       0.41529    0.38327    0.16653    1.000
    N1993    N        0.40482    0.39630    0.24469    1.000
    Si1994   Si       0.37761    0.41825    0.21845    1.000
    N1995    N        0.29316    0.37994    0.35229    1.000
    Si1996   Si       0.25444    0.38446    0.37141    1.000
    Si1997   Si       0.32348    0.40494    0.36895    1.000
    N1998    N        0.36713    0.40114    0.35803    1.000
    N1999    N        0.40884    0.37395    0.30921    1.000
    Si2000   Si       0.40790    0.40950    0.28650    1.000
    Si2001   Si       0.45921    0.38929    0.35860    1.000
    Si2002   Si       0.37244    0.36673    0.33325    1.000
    Si2003   Si       0.28462    0.39517    0.43838    1.000
    N2004    N        0.26220    0.39570    0.47724    1.000
    N2005    N        0.26158    0.36826    0.41026    1.000
    N2006    N        0.32292    0.40773    0.41285    1.000
    N2007    N        0.35851    0.41955    0.47885    1.000
    Si2008   Si       0.38145    0.38238    0.48713    1.000
    N2009    N        0.45266    0.40793    0.43813    1.000
    Si2010   Si       0.45444    0.41540    0.48156    1.000
    Si2011   Si       0.43790    0.36760    0.43199    1.000
    Si2012   Si       0.31523    0.38806    0.61469    1.000
    Si2013   Si       0.28491    0.37195    0.55263    1.000
    N2014    N        0.28240    0.41291    0.53809    1.000
    N2015    N        0.32000    0.36904    0.57605    1.000
    Si2016   Si       0.42173    0.40883    0.54624    1.000
    N2017    N        0.46577    0.40107    0.55586    1.000
    N2018    N        0.38841    0.38295    0.56353    1.000
    Si2019   Si       0.38764    0.39756    0.60519    1.000
    Si2020   Si       0.46899    0.39454    0.59948    1.000
    N2021    N        0.42219    0.39558    0.50343    1.000
    N2022    N        0.43005    0.39214    0.61841    1.000
    N2023    N        0.35581    0.38092    0.62832    1.000
    N2024    N        0.27561    0.37469    0.63360    1.000
    Si2025   Si       0.25369    0.39605    0.66546    1.000
    N2026    N        0.35004    0.39547    0.69563    1.000
    N2027    N        0.27936    0.39674    0.70073    1.000
    Si2028   Si       0.38296    0.41986    0.71361    1.000
    N2029    N        0.47105    0.38293    0.67478    1.000
    N2030    N        0.47783    0.40818    0.73799    1.000
    Si2031   Si       0.43091    0.38779    0.66155    1.000
    N2032    N        0.32917    0.37633    0.77799    1.000
    Si2033   Si       0.28784    0.40619    0.84767    1.000
    Si2034   Si       0.30503    0.41384    0.77567    1.000
    Si2035   Si       0.36189    0.37488    0.80749    1.000
    N2036    N        0.24429    0.41403    0.85346    1.000
    N2037    N        0.35850    0.36761    0.85172    1.000
    N2038    N        0.29305    0.36409    0.84992    1.000
    N2039    N        0.38313    0.41317    0.81724    1.000
    N2040    N        0.44842    0.39367    0.80656    1.000
    Si2041   Si       0.38377    0.40329    0.86095    1.000
    Si2042   Si       0.45723    0.40310    0.84979    1.000
    Si2043   Si       0.41431    0.41595    0.78668    1.000
    Si2044   Si       0.48446    0.40133    0.78014    1.000
    N2045    N        0.39492    0.40007    0.75179    1.000
    N2046    N        0.48866    0.37590    0.86084    1.000
    Si2047   Si       0.35782    0.39011    0.92963    1.000
    N2048    N        0.24904    0.39812    0.99020    1.000
    N2049    N        0.36012    0.42039    0.96357    1.000
    N2050    N        0.36437    0.41540    0.89539    1.000
    N2051    N        0.46719    0.39025    0.93333    1.000
    N2052    N        0.39681    0.36809    0.93553    1.000
    Si2053   Si       0.43541    0.37130    0.91226    1.000
    N2054    N        0.42236    0.38814    0.87155    1.000
    N2055    N        0.33503    0.45744    0.01519    1.000
    Si2056   Si       0.30732    0.46689    0.04996    1.000
    N2057    N        0.28948    0.42835    0.06045    1.000
    Si2058   Si       0.25025    0.42660    0.08058    1.000
    Si2059   Si       0.39034    0.43457    0.06746    1.000
    N2060    N        0.40147    0.43990    0.02356    1.000
    N2061    N        0.46572    0.45433    0.11056    1.000
    Si2062   Si       0.43754    0.45322    0.00266    1.000
    N2063    N        0.39931    0.47610    0.07979    1.000
    N2064    N        0.46385    0.41757    0.01788    1.000
    N2065    N        0.24353    0.46523    0.17826    1.000
    N2066    N        0.34648    0.46890    0.15184    1.000
    N2067    N        0.35808    0.45737    0.22254    1.000
    Si2068   Si       0.27346    0.44625    0.15207    1.000
    N2069    N        0.29832    0.43430    0.18650    1.000
    Si2070   Si       0.32662    0.46617    0.19333    1.000
    N2071    N        0.39682    0.42153    0.17881    1.000
    N2072    N        0.48165    0.45473    0.23822    1.000
    Si2073   Si       0.38250    0.44686    0.14847    1.000
    Si2074   Si       0.27677    0.45463    0.34867    1.000
    N2075    N        0.31709    0.44214    0.34713    1.000
    Si2076   Si       0.35325    0.46224    0.33120    1.000
    N2077    N        0.25225    0.45171    0.31415    1.000
    N2078    N        0.24995    0.42864    0.37137    1.000
    N2079    N        0.38438    0.44333    0.30414    1.000
    N2080    N        0.44687    0.42945    0.28988    1.000
    Si2081   Si       0.42006    0.46543    0.29577    1.000
    Si2082   Si       0.45496    0.46631    0.36360    1.000
    N2083    N        0.43573    0.42632    0.36148    1.000
    Si2084   Si       0.48596    0.44129    0.27904    1.000
    N2085    N        0.37392    0.46974    0.36748    1.000
    N2086    N        0.26930    0.44010    0.43419    1.000
    N2087    N        0.30455    0.45801    0.48979    1.000
    N2088    N        0.33820    0.46827    0.43468    1.000
    Si2089   Si       0.29641    0.47134    0.44783    1.000
    Si2090   Si       0.35401    0.42749    0.43595    1.000
    N2091    N        0.39186    0.43317    0.41671    1.000
    N2092    N        0.43378    0.45541    0.47853    1.000
    Si2093   Si       0.39401    0.43083    0.37330    1.000
    Si2094   Si       0.43085    0.44688    0.43639    1.000
    N2095    N        0.44795    0.47771    0.40823    1.000
    N2096    N        0.34413    0.44511    0.54507    1.000
    Si2097   Si       0.30613    0.43915    0.56348    1.000
    N2098    N        0.30839    0.42902    0.60567    1.000
    Si2099   Si       0.34638    0.45667    0.50135    1.000
    Si2100   Si       0.26974    0.43199    0.50094    1.000
    N2101    N        0.23787    0.46024    0.50956    1.000
    N2102    N        0.28645    0.47889    0.56388    1.000
    Si2103   Si       0.37480    0.46418    0.57056    1.000
    N2104    N        0.38527    0.44051    0.60680    1.000
    N2105    N        0.41150    0.44944    0.54687    1.000
    Si2106   Si       0.41734    0.47716    0.51020    1.000
    N2107    N        0.31638    0.45117    0.67108    1.000
    Si2108   Si       0.28987    0.45555    0.63622    1.000
    N2109    N        0.25213    0.43950    0.64888    1.000
    N2110    N        0.32507    0.43407    0.74265    1.000
    Si2111   Si       0.31587    0.42088    0.70225    1.000
    N2112    N        0.38374    0.46456    0.72711    1.000
    N2113    N        0.44147    0.47092    0.64357    1.000
    Si2114   Si       0.48461    0.46015    0.64266    1.000
    Si2115   Si       0.40275    0.45172    0.64410    1.000
    N2116    N        0.40755    0.42120    0.67660    1.000
    Si2117   Si       0.35159    0.44577    0.81848    1.000
    Si2118   Si       0.25120    0.46712    0.77929    1.000
    N2119    N        0.35296    0.46777    0.85442    1.000
    N2120    N        0.26327    0.42614    0.77317    1.000
    N2121    N        0.35965    0.47484    0.78863    1.000
    N2122    N        0.31440    0.42493    0.81807    1.000
    Si2123   Si       0.34651    0.47229    0.74805    1.000
    N2124    N        0.43266    0.45500    0.78358    1.000
    N2125    N        0.46948    0.44382    0.85136    1.000
    Si2126   Si       0.46634    0.46493    0.81026    1.000
    Si2127   Si       0.41754    0.48143    0.75430    1.000
    Si2128   Si       0.25337    0.43713    0.89026    1.000
    N2129    N        0.28706    0.45162    0.95973    1.000
    N2130    N        0.29617    0.43221    0.88403    1.000
    Si2131   Si       0.24843    0.43281    0.96532    1.000
    N2132    N        0.33877    0.47168    0.92453    1.000
    Si2133   Si       0.31938    0.43038    0.98178    1.000
    Si2134   Si       0.33495    0.44794    0.88838    1.000
    N2135    N        0.23889    0.47761    0.88294    1.000
    N2136    N        0.43960    0.44572    0.96062    1.000
    Si2137   Si       0.48004    0.42728    0.94696    1.000
    Si2138   Si       0.37660    0.45636    0.94022    1.000
    Si2139   Si       0.44238    0.47472    0.92836    1.000
    N2140    N        0.40498    0.46878    0.90452    1.000
    N2141    N        0.48166    0.46133    0.91562    1.000
    N2142    N        0.28064    0.49874    0.03918    1.000
    Si2143   Si       0.28935    0.52592    0.00487    1.000
    N2144    N        0.25328    0.53196    0.09237    1.000
    N2145    N        0.33302    0.48318    0.08133    1.000
    Si2146   Si       0.24329    0.50222    0.06262    1.000
    Si2147   Si       0.32550    0.49236    0.12170    1.000
    Si2148   Si       0.35670    0.49401    0.99770    1.000
    N2149    N        0.37232    0.52290    0.02762    1.000
    Si2150   Si       0.36900    0.50524    0.06781    1.000
    N2151    N        0.44752    0.51970    0.08819    1.000
    Si2152   Si       0.45038    0.52284    0.04574    1.000
    N2153    N        0.43759    0.49682    0.01275    1.000
    Si2154   Si       0.43364    0.48198    0.10743    1.000
    N2155    N        0.32637    0.53482    0.13391    1.000
    Si2156   Si       0.25221    0.51293    0.13074    1.000
    N2157    N        0.31421    0.50803    0.19763    1.000
    Si2158   Si       0.30535    0.51591    0.23917    1.000
    N2159    N        0.28378    0.48215    0.12846    1.000
    N2160    N        0.27308    0.48763    0.24626    1.000
    N2161    N        0.41112    0.48051    0.14583    1.000
    Si2162   Si       0.42223    0.51461    0.17282    1.000
    N2163    N        0.45697    0.49918    0.19276    1.000
    N2164    N        0.39717    0.52341    0.20673    1.000
    Si2165   Si       0.37860    0.49389    0.23450    1.000
    Si2166   Si       0.45272    0.48766    0.23394    1.000
    N2167    N        0.33481    0.50267    0.31888    1.000
    Si2168   Si       0.29817    0.52093    0.33461    1.000
    N2169    N        0.27772    0.49470    0.36164    1.000
    N2170    N        0.27190    0.52332    0.29760    1.000
    Si2171   Si       0.25408    0.48373    0.28537    1.000
    N2172    N        0.34687    0.51483    0.25337    1.000
    Si2173   Si       0.35285    0.53180    0.29194    1.000
    Si2174   Si       0.42285    0.52754    0.33319    1.000
    N2175    N        0.46879    0.52215    0.25508    1.000
    N2176    N        0.43271    0.48475    0.33140    1.000
    N2177    N        0.41552    0.47996    0.25569    1.000
    Si2178   Si       0.48651    0.52151    0.29440    1.000
    Si2179   Si       0.25221    0.51086    0.39585    1.000
    N2180    N        0.28014    0.50944    0.43116    1.000
    N2181    N        0.34313    0.52615    0.39706    1.000
    Si2182   Si       0.31637    0.53596    0.43088    1.000
    Si2183   Si       0.36478    0.48950    0.40606    1.000
    Si2184   Si       0.42816    0.51859    0.41452    1.000
    N2185    N        0.41739    0.53669    0.37585    1.000
    Si2186   Si       0.37572    0.52327    0.47264    1.000
    N2187    N        0.39199    0.50744    0.43583    1.000
    Si2188   Si       0.31248    0.50812    0.58414    1.000
    N2189    N        0.35483    0.50063    0.58165    1.000
    Si2190   Si       0.24605    0.48299    0.54730    1.000
    N2191    N        0.23817    0.52451    0.53960    1.000
    Si2192   Si       0.48513    0.53023    0.52941    1.000
    N2193    N        0.42042    0.52596    0.60064    1.000
    N2194    N        0.44367    0.50932    0.52751    1.000
    Si2195   Si       0.37838    0.53718    0.59272    1.000
    N2196    N        0.37652    0.48860    0.50000    1.000
    Si2197   Si       0.43148    0.53706    0.55911    1.000
    N2198    N        0.30285    0.49806    0.62876    1.000
    Si2199   Si       0.33465    0.49009    0.65841    1.000
    N2200    N        0.32242    0.52415    0.68500    1.000
    Si2201   Si       0.28951    0.51012    0.71667    1.000
    N2202    N        0.25979    0.50855    0.67923    1.000
    Si2203   Si       0.27386    0.52944    0.64335    1.000
    N2204    N        0.25407    0.48431    0.73753    1.000
    N2205    N        0.39242    0.53396    0.70740    1.000
    Si2206   Si       0.39847    0.49238    0.69677    1.000
    N2207    N        0.45242    0.53581    0.66638    1.000
    Si2208   Si       0.46691    0.52110    0.70478    1.000
    N2209    N        0.43780    0.49199    0.71940    1.000
    Si2210   Si       0.45017    0.51221    0.62856    1.000
    N2211    N        0.37781    0.48442    0.66002    1.000
    Si2212   Si       0.25596    0.52717    0.81544    1.000
    N2213    N        0.27678    0.49205    0.80406    1.000
    Si2214   Si       0.31115    0.51931    0.78767    1.000
    N2215    N        0.31708    0.50179    0.74907    1.000
    Si2216   Si       0.44020    0.53193    0.84235    1.000
    Si2217   Si       0.37958    0.51083    0.80455    1.000
    N2218    N        0.40655    0.51925    0.77151    1.000
    N2219    N        0.46980    0.50717    0.82355    1.000
    N2220    N        0.40571    0.50650    0.83859    1.000
    N2221    N        0.25198    0.52458    0.98372    1.000
    Si2222   Si       0.25190    0.51756    0.89423    1.000
    N2223    N        0.29136    0.51549    0.91200    1.000
    N2224    N        0.31986    0.50824    0.97902    1.000
    Si2225   Si       0.30393    0.48710    0.94308    1.000
    Si2226   Si       0.41897    0.51746    0.97783    1.000
    N2227    N        0.38720    0.48815    0.96869    1.000
    N2228    N        0.36688    0.52966    0.89067    1.000
    N2229    N        0.44659    0.51486    0.94578    1.000
    Si2230   Si       0.38332    0.49317    0.87418    1.000
    Si2231   Si       0.34180    0.56288    0.10489    1.000
    N2232    N        0.30988    0.57714    0.07975    1.000
    Si2233   Si       0.26699    0.57295    0.08578    1.000
    N2234    N        0.30978    0.56584    0.00695    1.000
    Si2235   Si       0.32225    0.59052    0.04050    1.000
    N2236    N        0.36568    0.59408    0.03454    1.000
    N2237    N        0.43247    0.56201    0.03982    1.000
    Si2238   Si       0.39040    0.56122    0.02160    1.000
    Si2239   Si       0.42038    0.55080    0.10354    1.000
    N2240    N        0.41996    0.59375    0.09470    1.000
    N2241    N        0.37697    0.54110    0.09214    1.000
    N2242    N        0.48733    0.59591    0.06732    1.000
    Si2243   Si       0.44445    0.59866    0.05847    1.000
    Si2244   Si       0.24363    0.57919    0.16140    1.000
    N2245    N        0.32158    0.58346    0.18398    1.000
    N2246    N        0.28904    0.55889    0.23716    1.000
    Si2247   Si       0.30676    0.54225    0.17183    1.000
    N2248    N        0.26252    0.53925    0.16432    1.000
    N2249    N        0.25452    0.59565    0.12212    1.000
    N2250    N        0.36066    0.59654    0.12568    1.000
    Si2251   Si       0.29521    0.59836    0.21370    1.000
    N2252    N        0.39699    0.59379    0.18766    1.000
    N2253    N        0.42375    0.54970    0.14615    1.000
    Si2254   Si       0.48497    0.55090    0.22417    1.000
    Si2255   Si       0.43520    0.58597    0.16786    1.000
    N2256    N        0.45083    0.56553    0.20444    1.000
    Si2257   Si       0.40996    0.56485    0.21913    1.000
    Si2258   Si       0.26311    0.55959    0.27326    1.000
    N2259    N        0.30751    0.56095    0.34508    1.000
    N2260    N        0.34305    0.57510    0.29117    1.000
    Si2261   Si       0.31332    0.59253    0.31484    1.000
    N2262    N        0.39389    0.54175    0.30484    1.000
    Si2263   Si       0.38731    0.58365    0.29253    1.000
    Si2264   Si       0.47893    0.57601    0.34173    1.000
    N2265    N        0.40871    0.58890    0.25615    1.000
    N2266    N        0.37133    0.58684    0.36339    1.000
    N2267    N        0.46026    0.54259    0.32095    1.000
    Si2268   Si       0.33674    0.56483    0.37701    1.000
    Si2269   Si       0.26650    0.58453    0.39733    1.000
    N2270    N        0.30787    0.57671    0.41152    1.000
    Si2271   Si       0.32506    0.58022    0.48875    1.000
    Si2272   Si       0.24585    0.58742    0.47117    1.000
    N2273    N        0.28104    0.57866    0.49230    1.000
    N2274    N        0.33516    0.54286    0.46883    1.000
    N2275    N        0.40532    0.59675    0.41953    1.000
    N2276    N        0.39358    0.56423    0.48464    1.000
    Si2277   Si       0.48272    0.56857    0.46046    1.000
    Si2278   Si       0.41089    0.58040    0.37984    1.000
    N2279    N        0.44904    0.54595    0.44019    1.000
    Si2280   Si       0.42203    0.57983    0.45557    1.000
    Si2281   Si       0.32692    0.57958    0.57137    1.000
    Si2282   Si       0.25777    0.55135    0.56734    1.000
    N2283    N        0.35090    0.56823    0.60524    1.000
    N2284    N        0.30036    0.54617    0.56771    1.000
    N2285    N        0.34013    0.59512    0.53058    1.000
    N2286    N        0.23921    0.59089    0.55943    1.000
    N2287    N        0.24492    0.54056    0.60932    1.000
    N2288    N        0.39114    0.55287    0.55274    1.000
    Si2289   Si       0.38127    0.58320    0.52379    1.000
    N2290    N        0.46953    0.55955    0.55893    1.000
    N2291    N        0.34429    0.58861    0.68465    1.000
    Si2292   Si       0.30887    0.56631    0.69147    1.000
    N2293    N        0.28353    0.55609    0.72458    1.000
    N2294    N        0.28113    0.57303    0.65817    1.000
    Si2295   Si       0.35933    0.59053    0.64235    1.000
    Si2296   Si       0.38615    0.57588    0.69732    1.000
    N2297    N        0.40047    0.58177    0.65435    1.000
    Si2298   Si       0.41516    0.54803    0.74246    1.000
    N2299    N        0.40081    0.58819    0.73753    1.000
    N2300    N        0.45579    0.55399    0.73210    1.000
    N2301    N        0.48251    0.58477    0.63293    1.000
    Si2302   Si       0.46912    0.59342    0.72019    1.000
    Si2303   Si       0.44369    0.57827    0.65624    1.000
    Si2304   Si       0.27620    0.57882    0.85761    1.000
    Si2305   Si       0.34810    0.57400    0.83265    1.000
    N2306    N        0.28404    0.55400    0.79143    1.000
    Si2307   Si       0.26955    0.57872    0.75769    1.000
    N2308    N        0.31750    0.56705    0.86420    1.000
    N2309    N        0.25678    0.54042    0.85696    1.000
    N2310    N        0.34485    0.53618    0.80908    1.000
    N2311    N        0.38815    0.58251    0.84998    1.000
    N2312    N        0.45248    0.57266    0.82610    1.000
    Si2313   Si       0.30965    0.58559    0.96674    1.000
    N2314    N        0.26831    0.58509    0.95311    1.000
    N2315    N        0.33093    0.57066    0.93224    1.000
    Si2316   Si       0.32565    0.54181    0.89977    1.000
    Si2317   Si       0.41731    0.58703    0.95256    1.000
    N2318    N        0.43683    0.54483    0.88536    1.000
    Si2319   Si       0.39642    0.56124    0.88776    1.000
    N2320    N        0.45935    0.58194    0.94000    1.000
    N2321    N        0.39158    0.59120    0.91742    1.000
    Si2322   Si       0.46393    0.54413    0.91903    1.000
    N2323    N        0.40383    0.55665    0.97980    1.000
    N2324    N        0.30653    0.63186    0.03137    1.000
    Si2325   Si       0.26664    0.63502    0.04310    1.000
    Si2326   Si       0.23788    0.63257    0.10754    1.000
    N2327    N        0.24986    0.59368    0.05216    1.000
    Si2328   Si       0.32938    0.65316    0.00013    1.000
    N2329    N        0.37248    0.64963    0.08191    1.000
    Si2330   Si       0.38391    0.63415    0.04258    1.000
    N2331    N        0.42787    0.63230    0.03867    1.000
    Si2332   Si       0.39301    0.62132    0.10958    1.000
    N2333    N        0.25360    0.59998    0.19681    1.000
    N2334    N        0.35298    0.64559    0.17578    1.000
    N2335    N        0.30791    0.63663    0.23095    1.000
    Si2336   Si       0.35879    0.60177    0.16875    1.000
    N2337    N        0.46810    0.60894    0.15025    1.000
    Si2338   Si       0.45713    0.64878    0.13808    1.000
    N2339    N        0.45150    0.63874    0.21744    1.000
    Si2340   Si       0.41739    0.63122    0.24542    1.000
    N2341    N        0.41291    0.64415    0.13999    1.000
    N2342    N        0.32934    0.62829    0.33554    1.000
    Si2343   Si       0.29689    0.64188    0.36160    1.000
    N2344    N        0.26470    0.61255    0.36552    1.000
    Si2345   Si       0.24408    0.63465    0.29104    1.000
    N2346    N        0.27312    0.59815    0.29457    1.000
    Si2347   Si       0.37299    0.63227    0.34112    1.000
    N2348    N        0.40606    0.61431    0.31599    1.000
    Si2349   Si       0.44485    0.63350    0.31293    1.000
    N2350    N        0.47936    0.60758    0.31062    1.000
    N2351    N        0.37742    0.65286    0.24941    1.000
    N2352    N        0.45105    0.59595    0.36775    1.000
    Si2353   Si       0.30381    0.61461    0.43511    1.000
    N2354    N        0.31270    0.63995    0.40195    1.000
    N2355    N        0.33320    0.61692    0.46470    1.000
    N2356    N        0.25698    0.60808    0.43400    1.000
    Si2357   Si       0.35868    0.65236    0.46643    1.000
    N2358    N        0.45470    0.60284    0.47109    1.000
    N2359    N        0.40089    0.64479    0.46494    1.000
    N2360    N        0.38515    0.64585    0.38338    1.000
    Si2361   Si       0.43398    0.63594    0.49302    1.000
    Si2362   Si       0.40718    0.64057    0.42018    1.000
    N2363    N        0.44876    0.65302    0.41543    1.000
    Si2364   Si       0.46587    0.63624    0.37813    1.000
    N2365    N        0.30396    0.61322    0.58685    1.000
    Si2366   Si       0.26670    0.62484    0.56582    1.000
    N2367    N        0.28629    0.64380    0.52936    1.000
    Si2368   Si       0.33095    0.64490    0.60364    1.000
    Si2369   Si       0.32987    0.64066    0.52901    1.000
    N2370    N        0.34664    0.65898    0.56598    1.000
    N2371    N        0.40777    0.61624    0.52615    1.000
    N2372    N        0.46107    0.64743    0.52878    1.000
    Si2373   Si       0.42330    0.64354    0.55614    1.000
    N2374    N        0.41663    0.63561    0.59774    1.000
    N2375    N        0.27650    0.63901    0.68397    1.000
    Si2376   Si       0.27986    0.64923    0.72851    1.000
    Si2377   Si       0.25248    0.60519    0.66657    1.000
    N2378    N        0.35750    0.63225    0.63437    1.000
    N2379    N        0.40837    0.65725    0.72900    1.000
    Si2380   Si       0.43456    0.65140    0.69424    1.000
    N2381    N        0.44715    0.61084    0.68492    1.000
    Si2382   Si       0.39480    0.65624    0.62788    1.000
    N2383    N        0.33751    0.61246    0.81155    1.000
    Si2384   Si       0.29903    0.62580    0.80021    1.000
    N2385    N        0.27008    0.61089    0.82952    1.000
    N2386    N        0.28951    0.61659    0.75771    1.000
    Si2387   Si       0.36895    0.64544    0.81193    1.000
    N2388    N        0.40463    0.62389    0.79822    1.000
    N2389    N        0.43887    0.63660    0.85396    1.000
    Si2390   Si       0.41639    0.62304    0.75507    1.000
    N2391    N        0.46142    0.62254    0.75160    1.000
    Si2392   Si       0.42134    0.60241    0.83199    1.000
    N2393    N        0.34985    0.65094    0.91019    1.000
    Si2394   Si       0.25427    0.61678    0.92753    1.000
    N2395    N        0.32909    0.62389    0.96598    1.000
    Si2396   Si       0.35374    0.60979    0.92743    1.000
    N2397    N        0.25249    0.60099    0.88741    1.000
    N2398    N        0.27968    0.65047    0.92143    1.000
    N2399    N        0.48507    0.62701    0.99231    1.000
    N2400    N        0.48157    0.64918    0.92808    1.000
    N2401    N        0.41832    0.62248    0.97464    1.000
    Si2402   Si       0.48535    0.61313    0.95194    1.000
    Si2403   Si       0.44613    0.64256    0.00014    1.000
    Si2404   Si       0.28899    0.68791    0.09227    1.000
    Si2405   Si       0.35170    0.68245    0.09906    1.000
    N2406    N        0.32527    0.70265    0.06927    1.000
    N2407    N        0.26202    0.65583    0.07903    1.000
    N2408    N        0.31698    0.66888    0.12198    1.000
    N2409    N        0.36755    0.66534    0.01477    1.000
    Si2410   Si       0.45375    0.69921    0.08324    1.000
    N2411    N        0.47101    0.70181    0.04437    1.000
    N2412    N        0.46646    0.65913    0.09769    1.000
    Si2413   Si       0.45008    0.71527    0.00827    1.000
    Si2414   Si       0.37348    0.70666    0.99945    1.000
    Si2415   Si       0.34543    0.65506    0.21767    1.000
    Si2416   Si       0.25051    0.68573    0.17189    1.000
    Si2417   Si       0.33079    0.68464    0.16073    1.000
    N2418    N        0.34292    0.69999    0.20386    1.000
    N2419    N        0.29298    0.70782    0.16921    1.000
    N2420    N        0.25070    0.66862    0.21155    1.000
    Si2421   Si       0.28014    0.66947    0.24121    1.000
    N2422    N        0.28899    0.71287    0.24543    1.000
    N2423    N        0.46671    0.68183    0.16448    1.000
    Si2424   Si       0.44733    0.67916    0.20326    1.000
    N2425    N        0.36915    0.69996    0.13752    1.000
    N2426    N        0.40573    0.68620    0.19844    1.000
    Si2427   Si       0.38933    0.67039    0.16354    1.000
    N2428    N        0.46448    0.70682    0.23018    1.000
    N2429    N        0.26913    0.66876    0.28505    1.000
    N2430    N        0.26742    0.67528    0.36052    1.000
    Si2431   Si       0.35013    0.70680    0.33298    1.000
    Si2432   Si       0.29260    0.71033    0.35894    1.000
    Si2433   Si       0.27742    0.71106    0.28840    1.000
    N2434    N        0.33208    0.69484    0.37019    1.000
    N2435    N        0.43560    0.65987    0.27662    1.000
    N2436    N        0.37615    0.67528    0.32012    1.000
    Si2437   Si       0.47640    0.69779    0.33636    1.000
    Si2438   Si       0.39507    0.67796    0.28024    1.000
    Si2439   Si       0.47208    0.68035    0.26335    1.000
    N2440    N        0.45666    0.66062    0.34566    1.000
    N2441    N        0.48746    0.70611    0.29536    1.000
    Si2442   Si       0.34876    0.66524    0.39621    1.000
    N2443    N        0.26958    0.67029    0.46084    1.000
    Si2444   Si       0.27766    0.71242    0.46470    1.000
    N2445    N        0.35657    0.68079    0.43379    1.000
    Si2446   Si       0.48005    0.66796    0.44205    1.000
    N2447    N        0.46240    0.68582    0.47683    1.000
    Si2448   Si       0.26514    0.68871    0.60121    1.000
    N2449    N        0.34285    0.67131    0.50056    1.000
    N2450    N        0.30562    0.67398    0.62011    1.000
    Si2451   Si       0.33756    0.71415    0.50547    1.000
    Si2452   Si       0.25705    0.65873    0.50114    1.000
    N2453    N        0.24547    0.65259    0.58889    1.000
    Si2454   Si       0.37163    0.69408    0.56826    1.000
    Si2455   Si       0.48087    0.68310    0.51671    1.000
    N2456    N        0.37370    0.69191    0.61206    1.000
    N2457    N        0.41053    0.68496    0.55288    1.000
    N2458    N        0.30642    0.68261    0.73766    1.000
    N2459    N        0.31758    0.70381    0.67191    1.000
    Si2460   Si       0.28599    0.67510    0.66073    1.000
    N2461    N        0.24885    0.69158    0.64193    1.000
    Si2462   Si       0.33671    0.70674    0.63155    1.000
    Si2463   Si       0.32319    0.71578    0.71260    1.000
    Si2464   Si       0.45318    0.70911    0.73185    1.000
    Si2465   Si       0.44057    0.71123    0.66472    1.000
    N2466    N        0.48131    0.70748    0.65053    1.000
    N2467    N        0.42001    0.67240    0.65955    1.000
    N2468    N        0.46745    0.67805    0.70370    1.000
    N2469    N        0.29397    0.66920    0.80452    1.000
    Si2470   Si       0.32076    0.69331    0.77953    1.000
    Si2471   Si       0.26070    0.68818    0.82376    1.000
    N2472    N        0.25198    0.66837    0.86276    1.000
    N2473    N        0.36080    0.67617    0.77995    1.000
    N2474    N        0.43555    0.69386    0.83429    1.000
    Si2475   Si       0.41580    0.67025    0.86620    1.000
    N2476    N        0.37429    0.66655    0.85075    1.000
    Si2477   Si       0.47073    0.66493    0.82830    1.000
    Si2478   Si       0.38589    0.68954    0.74889    1.000
    N2479    N        0.42297    0.71299    0.76198    1.000
    N2480    N        0.48347    0.68518    0.78709    1.000
    N2481    N        0.30663    0.69919    0.89127    1.000
    Si2482   Si       0.26727    0.68452    0.89935    1.000
    N2483    N        0.31421    0.68535    0.97160    1.000
    Si2484   Si       0.34763    0.68397    0.88137    1.000
    Si2485   Si       0.31680    0.65691    0.94005    1.000
    Si2486   Si       0.45506    0.68009    0.93890    1.000
    N2487    N        0.42443    0.68328    0.90666    1.000
    N2488    N        0.44930    0.68153    0.98233    1.000
    N2489    N        0.38162    0.70455    0.95811    1.000
    Si2490   Si       0.32964    0.74049    0.04934    1.000
    Si2491   Si       0.26091    0.75702    0.02025    1.000
    N2492    N        0.33992    0.73482    0.00640    1.000
    N2493    N        0.26429    0.72263    0.10384    1.000
    N2494    N        0.29433    0.76659    0.04457    1.000
    N2495    N        0.36494    0.76165    0.06520    1.000
    Si2496   Si       0.40422    0.74717    0.05443    1.000
    N2497    N        0.40892    0.72369    0.01727    1.000
    N2498    N        0.41543    0.71749    0.08568    1.000
    N2499    N        0.48208    0.72344    0.11022    1.000
    Si2500   Si       0.26999    0.73783    0.14638    1.000
    Si2501   Si       0.30789    0.72573    0.20632    1.000
    N2502    N        0.31933    0.76748    0.20547    1.000
    Si2503   Si       0.39753    0.73021    0.12321    1.000
    N2504    N        0.43150    0.74082    0.15201    1.000
    Si2505   Si       0.38141    0.71585    0.21904    1.000
    N2506    N        0.38625    0.75644    0.20255    1.000
    Si2507   Si       0.48362    0.74419    0.21958    1.000
    Si2508   Si       0.47019    0.72494    0.15196    1.000
    N2509    N        0.38154    0.77128    0.13117    1.000
    N2510    N        0.24946    0.74100    0.30296    1.000
    Si2511   Si       0.24142    0.75811    0.34567    1.000
    N2512    N        0.30768    0.71482    0.31654    1.000
    N2513    N        0.36990    0.74433    0.32804    1.000
    N2514    N        0.46136    0.72987    0.35941    1.000
    Si2515   Si       0.38806    0.75638    0.29028    1.000
    N2516    N        0.39027    0.71877    0.26390    1.000
    N2517    N        0.42930    0.76693    0.29992    1.000
    Si2518   Si       0.44840    0.76929    0.34493    1.000
    N2519    N        0.26967    0.74308    0.37611    1.000
    Si2520   Si       0.27568    0.75249    0.41910    1.000
    N2521    N        0.30440    0.72380    0.43253    1.000
    N2522    N        0.24604    0.74048    0.45139    1.000
    Si2523   Si       0.34801    0.72273    0.43165    1.000
    N2524    N        0.36003    0.73529    0.47302    1.000
    Si2525   Si       0.40996    0.76209    0.41397    1.000
    Si2526   Si       0.44507    0.72599    0.46795    1.000
    Si2527   Si       0.47378    0.72997    0.40152    1.000
    N2528    N        0.36916    0.74767    0.40393    1.000
    N2529    N        0.43739    0.72987    0.42550    1.000
    Si2530   Si       0.38759    0.76569    0.48451    1.000
    N2531    N        0.47766    0.75564    0.47462    1.000
    Si2532   Si       0.26166    0.72524    0.52986    1.000
    Si2533   Si       0.29440    0.75381    0.58680    1.000
    N2534    N        0.32854    0.74056    0.60734    1.000
    N2535    N        0.25135    0.76611    0.52081    1.000
    N2536    N        0.35782    0.72773    0.54383    1.000
    N2537    N        0.27080    0.71926    0.57240    1.000
    N2538    N        0.26624    0.77061    0.61541    1.000
    N2539    N        0.29535    0.71877    0.50337    1.000
    Si2540   Si       0.35390    0.77176    0.54978    1.000
    Si2541   Si       0.42684    0.72207    0.53922    1.000
    N2542    N        0.42200    0.75496    0.56626    1.000
    Si2543   Si       0.44471    0.76241    0.60260    1.000
    N2544    N        0.47185    0.72095    0.53560    1.000
    N2545    N        0.48672    0.75278    0.59746    1.000
    N2546    N        0.42125    0.74241    0.49991    1.000
    Si2547   Si       0.46031    0.77097    0.51070    1.000
    Si2548   Si       0.25607    0.75163    0.72403    1.000
    N2549    N        0.29815    0.74738    0.72549    1.000
    N2550    N        0.43189    0.74673    0.63953    1.000
    N2551    N        0.48564    0.77482    0.66513    1.000
    Si2552   Si       0.44360    0.76928    0.67645    1.000
    N2553    N        0.49057    0.72845    0.74004    1.000
    Si2554   Si       0.39375    0.75131    0.71703    1.000
    N2555    N        0.36464    0.71993    0.72709    1.000
    N2556    N        0.43256    0.73645    0.70101    1.000
    N2557    N        0.37640    0.77097    0.68265    1.000
    N2558    N        0.33139    0.75460    0.85542    1.000
    N2559    N        0.25850    0.73249    0.83304    1.000
    N2560    N        0.31902    0.73455    0.79046    1.000
    Si2561   Si       0.31230    0.77024    0.76185    1.000
    Si2562   Si       0.24424    0.75004    0.79522    1.000
    Si2563   Si       0.30953    0.77222    0.82235    1.000
    N2564    N        0.24046    0.72905    0.75840    1.000
    Si2565   Si       0.43080    0.72440    0.80378    1.000
    Si2566   Si       0.37580    0.74904    0.85684    1.000
    N2567    N        0.39597    0.74626    0.81599    1.000
    N2568    N        0.46814    0.74684    0.80853    1.000
    Si2569   Si       0.48690    0.76892    0.84000    1.000
    Si2570   Si       0.24465    0.74278    0.87484    1.000
    Si2571   Si       0.31326    0.72995    0.97404    1.000
    N2572    N        0.27120    0.73895    0.98145    1.000
    Si2573   Si       0.31600    0.74159    0.89479    1.000
    N2574    N        0.32571    0.74985    0.93579    1.000
    N2575    N        0.27831    0.76562    0.89188    1.000
    N2576    N        0.41634    0.75980    0.92633    1.000
    Si2577   Si       0.45321    0.76590    0.95226    1.000
    Si2578   Si       0.40033    0.71806    0.92206    1.000
    N2579    N        0.47233    0.74888    0.99336    1.000
    N2580    N        0.37132    0.72052    0.88904    1.000
    N2581    N        0.46751    0.72239    0.93276    1.000
    N2582    N        0.32793    0.81422    0.09611    1.000
    Si2583   Si       0.29635    0.80573    0.06511    1.000
    N2584    N        0.26088    0.81414    0.08842    1.000
    N2585    N        0.24382    0.79431    0.00762    1.000
    Si2586   Si       0.27525    0.82374    0.99793    1.000
    Si2587   Si       0.36619    0.79276    0.09499    1.000
    Si2588   Si       0.45749    0.78551    0.01389    1.000
    N2589    N        0.43128    0.78064    0.04664    1.000
    Si2590   Si       0.42984    0.82366    0.06077    1.000
    N2591    N        0.39225    0.82702    0.08094    1.000
    N2592    N        0.46074    0.82576    0.09334    1.000
    N2593    N        0.48788    0.81076    0.03089    1.000
    Si2594   Si       0.24252    0.79673    0.12405    1.000
    Si2595   Si       0.29556    0.79782    0.18365    1.000
    N2596    N        0.26122    0.81282    0.20528    1.000
    Si2597   Si       0.35682    0.78494    0.21898    1.000
    N2598    N        0.27494    0.78096    0.14812    1.000
    N2599    N        0.31848    0.82947    0.24091    1.000
    Si2600   Si       0.27529    0.83102    0.24231    1.000
    N2601    N        0.42897    0.81414    0.16392    1.000
    N2602    N        0.46178    0.78094    0.22635    1.000
    N2603    N        0.37277    0.82335    0.20357    1.000
    Si2604   Si       0.46833    0.82284    0.20278    1.000
    Si2605   Si       0.40753    0.77496    0.16731    1.000
    N2606    N        0.25984    0.80503    0.27365    1.000
    N2607    N        0.26067    0.79679    0.34381    1.000
    Si2608   Si       0.27308    0.82291    0.31254    1.000
    Si2609   Si       0.34452    0.82321    0.27645    1.000
    N2610    N        0.33247    0.79444    0.36675    1.000
    N2611    N        0.31685    0.82596    0.30900    1.000
    N2612    N        0.36360    0.78575    0.26426    1.000
    Si2613   Si       0.45374    0.78845    0.27123    1.000
    N2614    N        0.37788    0.81315    0.32910    1.000
    N2615    N        0.48124    0.79898    0.34985    1.000
    N2616    N        0.43763    0.82989    0.27682    1.000
    Si2617   Si       0.37285    0.77687    0.35969    1.000
    Si2618   Si       0.29053    0.80151    0.37523    1.000
    Si2619   Si       0.30427    0.82450    0.44392    1.000
    N2620    N        0.29920    0.81735    0.48706    1.000
    N2621    N        0.28651    0.79417    0.41917    1.000
    N2622    N        0.34735    0.82664    0.45025    1.000
    Si2623   Si       0.34261    0.82587    0.49543    1.000
    Si2624   Si       0.38858    0.82806    0.44102    1.000
    N2625    N        0.41529    0.77835    0.37334    1.000
    N2626    N        0.40449    0.78778    0.44888    1.000
    N2627    N        0.31786    0.81791    0.60539    1.000
    Si2628   Si       0.28514    0.79380    0.52117    1.000
    N2629    N        0.26049    0.82967    0.53620    1.000
    Si2630   Si       0.35757    0.83054    0.60304    1.000
    N2631    N        0.31058    0.77806    0.55246    1.000
    N2632    N        0.36304    0.78991    0.50935    1.000
    N2633    N        0.37439    0.80417    0.57151    1.000
    N2634    N        0.44146    0.80581    0.59420    1.000
    N2635    N        0.43577    0.80673    0.52155    1.000
    Si2636   Si       0.41556    0.79827    0.55884    1.000
    Si2637   Si       0.28179    0.81159    0.62691    1.000
    N2638    N        0.28935    0.82134    0.66721    1.000
    N2639    N        0.24823    0.79402    0.71879    1.000
    Si2640   Si       0.28359    0.81556    0.71113    1.000
    N2641    N        0.31792    0.80437    0.73479    1.000
    Si2642   Si       0.35859    0.81943    0.73592    1.000
    N2643    N        0.38840    0.82859    0.63509    1.000
    N2644    N        0.43144    0.80808    0.68787    1.000
    N2645    N        0.38371    0.78283    0.74711    1.000
    Si2646   Si       0.38847    0.81086    0.67456    1.000
    N2647    N        0.34033    0.79165    0.79603    1.000
    Si2648   Si       0.26695    0.82224    0.80705    1.000
    N2649    N        0.29176    0.80943    0.83976    1.000
    N2650    N        0.27512    0.78201    0.78746    1.000
    N2651    N        0.40979    0.81309    0.80438    1.000
    Si2652   Si       0.42083    0.81524    0.84887    1.000
    N2653    N        0.45812    0.79349    0.86120    1.000
    Si2654   Si       0.38341    0.78064    0.79122    1.000
    N2655    N        0.38960    0.78848    0.86934    1.000
    Si2656   Si       0.27998    0.81048    0.88106    1.000
    N2657    N        0.30617    0.80368    0.97492    1.000
    Si2658   Si       0.32476    0.79479    0.93924    1.000
    N2659    N        0.30954    0.82417    0.90973    1.000
    Si2660   Si       0.39812    0.79600    0.91134    1.000
    N2661    N        0.44089    0.79932    0.97752    1.000
    N2662    N        0.36561    0.81372    0.93440    1.000
    N2663    N        0.48725    0.78482    0.92697    1.000
    N2664    N        0.42901    0.82606    0.90622    1.000
    Si2665   Si       0.46892    0.81342    0.89904    1.000
    Si2666   Si       0.25537    0.85687    0.09469    1.000
    Si2667   Si       0.29993    0.87964    0.04449    1.000
    N2668    N        0.29717    0.83684    0.03674    1.000
    N2669    N        0.34168    0.88623    0.05766    1.000
    N2670    N        0.26065    0.88813    0.06348    1.000
    N2671    N        0.35379    0.86779    0.12387    1.000
    Si2672   Si       0.36954    0.86424    0.08368    1.000
    N2673    N        0.42287    0.84861    0.02415    1.000
    N2674    N        0.40572    0.89116    0.07720    1.000
    N2675    N        0.28520    0.86695    0.12248    1.000
    Si2676   Si       0.31890    0.84276    0.13025    1.000
    Si2677   Si       0.33960    0.85287    0.20814    1.000
    N2678    N        0.31812    0.83427    0.17240    1.000
    Si2679   Si       0.40603    0.84437    0.18706    1.000
    N2680    N        0.43608    0.87788    0.14531    1.000
    N2681    N        0.48766    0.84228    0.16462    1.000
    Si2682   Si       0.45272    0.83856    0.13614    1.000
    N2683    N        0.44081    0.85897    0.21076    1.000
    N2684    N        0.37740    0.88280    0.18599    1.000
    N2685    N        0.25405    0.86235    0.31657    1.000
    Si2686   Si       0.25780    0.87254    0.35886    1.000
    N2687    N        0.29457    0.84498    0.36733    1.000
    N2688    N        0.26115    0.87214    0.24715    1.000
    Si2689   Si       0.34113    0.83076    0.34589    1.000
    N2690    N        0.37024    0.85883    0.28467    1.000
    Si2691   Si       0.40508    0.83931    0.30472    1.000
    N2692    N        0.42054    0.86434    0.33605    1.000
    Si2693   Si       0.45953    0.85784    0.25225    1.000
    N2694    N        0.35471    0.86206    0.37496    1.000
    Si2695   Si       0.25157    0.87939    0.43364    1.000
    Si2696   Si       0.31516    0.87810    0.39148    1.000
    N2697    N        0.29250    0.86332    0.42814    1.000
    Si2698   Si       0.26489    0.84799    0.49590    1.000
    N2699    N        0.40369    0.85758    0.47256    1.000
    Si2700   Si       0.43777    0.87232    0.44342    1.000
    Si2701   Si       0.40036    0.86641    0.37343    1.000
    N2702    N        0.41434    0.84936    0.41161    1.000
    N2703    N        0.46680    0.85226    0.47081    1.000
    Si2704   Si       0.26282    0.85592    0.57244    1.000
    N2705    N        0.35112    0.87371    0.60746    1.000
    N2706    N        0.34876    0.86570    0.51459    1.000
    N2707    N        0.29762    0.87963    0.56767    1.000
    Si2708   Si       0.31597    0.88911    0.52903    1.000
    N2709    N        0.28050    0.88907    0.50120    1.000
    N2710    N        0.24981    0.83292    0.60623    1.000
    N2711    N        0.48389    0.88915    0.57695    1.000
    Si2712   Si       0.38762    0.88442    0.50382    1.000
    N2713    N        0.42144    0.87244    0.59507    1.000
    N2714    N        0.42543    0.87928    0.52653    1.000
    Si2715   Si       0.43644    0.84309    0.49959    1.000
    Si2716   Si       0.42919    0.83754    0.61972    1.000
    Si2717   Si       0.47900    0.88397    0.62144    1.000
    Si2718   Si       0.38963    0.89208    0.61463    1.000
    N2719    N        0.28335    0.88840    0.63517    1.000
    N2720    N        0.28218    0.85747    0.71567    1.000
    Si2721   Si       0.29299    0.86599    0.67305    1.000
    N2722    N        0.37051    0.84025    0.70052    1.000
    Si2723   Si       0.36808    0.88283    0.69203    1.000
    N2724    N        0.46059    0.85007    0.64491    1.000
    Si2725   Si       0.45833    0.84219    0.68911    1.000
    N2726    N        0.44294    0.87909    0.70421    1.000
    N2727    N        0.29481    0.85209    0.78650    1.000
    Si2728   Si       0.28155    0.87710    0.75505    1.000
    N2729    N        0.35939    0.85713    0.82771    1.000
    N2730    N        0.35778    0.85104    0.76531    1.000
    Si2731   Si       0.35903    0.88755    0.85819    1.000
    Si2732   Si       0.33446    0.83513    0.79900    1.000
    N2733    N        0.42514    0.85873    0.84464    1.000
    Si2734   Si       0.39919    0.85478    0.80707    1.000
    N2735    N        0.41016    0.88485    0.77971    1.000
    Si2736   Si       0.34314    0.84918    0.92367    1.000
    N2737    N        0.26143    0.86046    0.97836    1.000
    N2738    N        0.33716    0.88107    0.95264    1.000
    N2739    N        0.24619    0.83726    0.88109    1.000
    Si2740   Si       0.29355    0.88879    0.96738    1.000
    N2741    N        0.49117    0.84703    0.88364    1.000
    Si2742   Si       0.48196    0.88881    0.89379    1.000
    N2743    N        0.47542    0.86152    0.98259    1.000
    Si2744   Si       0.41223    0.86673    0.91057    1.000
    N2745    N        0.40981    0.86872    0.95533    1.000
    N2746    N        0.37260    0.87035    0.89598    1.000
    Si2747   Si       0.43673    0.84279    0.98121    1.000
    Si2748   Si       0.34540    0.91731    0.02357    1.000
    N2749    N        0.30520    0.90627    0.00764    1.000
    Si2750   Si       0.24998    0.93637    0.07706    1.000
    Si2751   Si       0.27386    0.94000    0.00584    1.000
    N2752    N        0.26477    0.93212    0.11764    1.000
    N2753    N        0.44434    0.91664    0.02459    1.000
    N2754    N        0.38399    0.90923    0.00274    1.000
    N2755    N        0.44998    0.93948    0.10453    1.000
    Si2756   Si       0.42051    0.90916    0.11565    1.000
    Si2757   Si       0.48692    0.91926    0.03297    1.000
    Si2758   Si       0.41240    0.88961    0.03510    1.000
    N2759    N        0.28397    0.94402    0.22942    1.000
    N2760    N        0.25447    0.89583    0.18046    1.000
    Si2761   Si       0.35621    0.90228    0.15029    1.000
    N2762    N        0.31751    0.92202    0.15042    1.000
    Si2763   Si       0.27908    0.90158    0.14546    1.000
    Si2764   Si       0.27617    0.90130    0.21956    1.000
    Si2765   Si       0.32845    0.94273    0.22889    1.000
    N2766    N        0.36714    0.94601    0.20601    1.000
    N2767    N        0.31953    0.89242    0.21606    1.000
    N2768    N        0.43189    0.92592    0.20045    1.000
    Si2769   Si       0.39317    0.91250    0.21492    1.000
    N2770    N        0.38460    0.92883    0.12986    1.000
    Si2771   Si       0.45319    0.89114    0.18481    1.000
    N2772    N        0.33280    0.93198    0.27087    1.000
    Si2773   Si       0.35528    0.92942    0.36354    1.000
    Si2774   Si       0.28519    0.94677    0.36041    1.000
    N2775    N        0.28381    0.90604    0.36791    1.000
    N2776    N        0.32190    0.95042    0.34051    1.000
    Si2777   Si       0.36416    0.90224    0.28550    1.000
    N2778    N        0.37383    0.91681    0.32587    1.000
    N2779    N        0.43281    0.93699    0.31627    1.000
    Si2780   Si       0.43454    0.92500    0.27413    1.000
    Si2781   Si       0.44149    0.90402    0.34455    1.000
    N2782    N        0.39790    0.91180    0.25777    1.000
    N2783    N        0.46735    0.89544    0.27267    1.000
    N2784    N        0.48533    0.89666    0.34249    1.000
    N2785    N        0.25621    0.92095    0.44485    1.000
    N2786    N        0.33558    0.91877    0.40182    1.000
    Si2787   Si       0.27524    0.92942    0.48486    1.000
    N2788    N        0.31250    0.94761    0.47011    1.000
    N2789    N        0.38001    0.92421    0.49180    1.000
    Si2790   Si       0.42616    0.93652    0.41132    1.000
    N2791    N        0.41885    0.90663    0.38283    1.000
    N2792    N        0.45345    0.91374    0.43987    1.000
    Si2793   Si       0.48476    0.93673    0.41387    1.000
    Si2794   Si       0.47165    0.93370    0.47599    1.000
    N2795    N        0.32747    0.93235    0.53591    1.000
    N2796    N        0.32270    0.93805    0.60721    1.000
    N2797    N        0.26377    0.94580    0.57126    1.000
    Si2798   Si       0.31458    0.89567    0.60443    1.000
    Si2799   Si       0.44198    0.89484    0.56308    1.000
    N2800    N        0.38669    0.93254    0.60159    1.000
    N2801    N        0.44102    0.93841    0.56089    1.000
    Si2802   Si       0.24475    0.89982    0.64955    1.000
    Si2803   Si       0.29758    0.91865    0.70203    1.000
    N2804    N        0.25619    0.91204    0.69007    1.000
    N2805    N        0.30204    0.91473    0.74547    1.000
    N2806    N        0.32675    0.89224    0.68414    1.000
    N2807    N        0.38279    0.90441    0.72716    1.000
    Si2808   Si       0.42494    0.89785    0.74124    1.000
    N2809    N        0.39401    0.89558    0.65921    1.000
    Si2810   Si       0.43415    0.90749    0.67131    1.000
    N2811    N        0.45724    0.91729    0.63616    1.000
    N2812    N        0.34773    0.92178    0.79410    1.000
    Si2813   Si       0.28406    0.92433    0.84569    1.000
    Si2814   Si       0.31227    0.94176    0.77592    1.000
    N2815    N        0.31851    0.90351    0.86021    1.000
    N2816    N        0.28011    0.94529    0.80576    1.000
    N2817    N        0.24395    0.89759    0.76055    1.000
    N2818    N        0.25130    0.89771    0.83702    1.000
    Si2819   Si       0.24360    0.91839    0.79826    1.000
    N2820    N        0.38909    0.91889    0.84965    1.000
    N2821    N        0.45623    0.92464    0.82578    1.000
    Si2822   Si       0.43039    0.90218    0.85304    1.000
    Si2823   Si       0.37286    0.94634    0.82146    1.000
    N2824    N        0.44799    0.93382    0.75049    1.000
    Si2825   Si       0.36627    0.89537    0.76533    1.000
    N2826    N        0.28155    0.92496    0.95005    1.000
    Si2827   Si       0.47755    0.90066    0.96570    1.000
    Si2828   Si       0.41998    0.93926    0.99480    1.000
    N2829    N        0.44793    0.93750    0.95893    1.000
    Si2830   Si       0.37601    0.89707    0.96166    1.000
    N2831    N        0.38681    0.93569    0.93792    1.000
    Si2832   Si       0.42741    0.93473    0.92089    1.000
    N2833    N        0.43884    0.89960    0.89618    1.000
    Si2834   Si       0.31541    0.97566    0.05680    1.000
    N2835    N        0.34675    0.96132    0.03059    1.000
    N2836    N        0.33025    0.96722    0.09690    1.000
    N2837    N        0.28020    0.95008    0.04884    1.000
    Si2838   Si       0.37326    0.99342    0.01244    1.000
    N2839    N        0.39931    0.98493    0.09306    1.000
    Si2840   Si       0.44317    0.97991    0.09053    1.000
    N2841    N        0.46806    0.99762    0.05824    1.000
    N2842    N        0.41514    0.97991    0.01183    1.000
    Si2843   Si       0.45080    0.00631    0.01997    1.000
    Si2844   Si       0.36925    0.96933    0.11886    1.000
    N2845    N        0.27790    0.99081    0.14188    1.000
    N2846    N        0.33230    0.99145    0.22670    1.000
    Si2847   Si       0.30096    0.95817    0.12555    1.000
    Si2848   Si       0.27569    0.98519    0.24539    1.000
    N2849    N        0.36927    0.99461    0.15522    1.000
    N2850    N        0.41689    0.99668    0.20575    1.000
    Si2851   Si       0.44361    0.96429    0.21599    1.000
    N2852    N        0.48568    0.97267    0.20501    1.000
    N2853    N        0.45825    0.00442    0.12519    1.000
    Si2854   Si       0.37405    0.99229    0.19995    1.000
    N2855    N        0.29368    0.99040    0.28662    1.000
    N2856    N        0.25319    0.96193    0.33459    1.000
    Si2857   Si       0.32731    0.96455    0.29958    1.000
    Si2858   Si       0.26591    0.00177    0.32071    1.000
    N2859    N        0.36711    0.98178    0.29963    1.000
    N2860    N        0.41994    0.00085    0.32251    1.000
    N2861    N        0.44009    0.96628    0.25952    1.000
    Si2862   Si       0.45610    0.98079    0.29784    1.000
    Si2863   Si       0.39658    0.96204    0.32625    1.000
    N2864    N        0.38375    0.96377    0.36788    1.000
    N2865    N        0.28396    0.96386    0.40166    1.000
    N2866    N        0.34026    0.98949    0.42195    1.000
    Si2867   Si       0.30111    0.00348    0.39688    1.000
    Si2868   Si       0.24617    0.95966    0.42029    1.000
    N2869    N        0.24296    0.99004    0.45244    1.000
    Si2870   Si       0.32001    0.94927    0.42744    1.000
    N2871    N        0.36737    0.98903    0.48865    1.000
    N2872    N        0.45690    0.96333    0.39545    1.000
    Si2873   Si       0.40091    0.95984    0.47774    1.000
    Si2874   Si       0.45142    0.00716    0.39863    1.000
    N2875    N        0.44210    0.96298    0.49223    1.000
    N2876    N        0.40017    0.95899    0.43466    1.000
    Si2877   Si       0.38159    0.98463    0.40614    1.000
    N2878    N        0.29825    0.99549    0.55799    1.000
    Si2879   Si       0.25624    0.98532    0.54577    1.000
    N2880    N        0.25211    0.95946    0.50734    1.000
    Si2881   Si       0.30677    0.95142    0.56857    1.000
    Si2882   Si       0.35716    0.95869    0.61942    1.000
    Si2883   Si       0.34452    0.95090    0.50026    1.000
    N2884    N        0.37110    0.99216    0.59733    1.000
    N2885    N        0.40934    0.98756    0.54431    1.000
    Si2886   Si       0.45191    0.97414    0.53468    1.000
    Si2887   Si       0.41102    0.96736    0.58300    1.000
    N2888    N        0.43673    0.98190    0.61687    1.000
    Si2889   Si       0.28683    0.99407    0.67151    1.000
    Si2890   Si       0.34513    0.98145    0.69346    1.000
    N2891    N        0.30755    0.96043    0.69292    1.000
    N2892    N        0.26383    0.99641    0.63469    1.000
    N2893    N        0.48529    0.99216    0.72743    1.000
    N2894    N        0.37030    0.96690    0.65968    1.000
    Si2895   Si       0.46553    0.95447    0.71682    1.000
    N2896    N        0.43603    0.95221    0.68202    1.000
    Si2897   Si       0.46013    0.95886    0.64505    1.000
    N2898    N        0.38152    0.98526    0.71899    1.000
    Si2899   Si       0.40570    0.98240    0.68111    1.000
    N2900    N        0.33097    0.97970    0.76317    1.000
    N2901    N        0.26041    0.99897    0.76998    1.000
    Si2902   Si       0.24885    0.98001    0.80844    1.000
    N2903    N        0.27711    0.95755    0.87114    1.000
    N2904    N        0.36997    0.98516    0.84269    1.000
    Si2905   Si       0.37604    0.98476    0.76183    1.000
    N2906    N        0.46394    0.98736    0.79690    1.000
    N2907    N        0.39915    0.95729    0.78642    1.000
    Si2908   Si       0.44107    0.95009    0.79034    1.000
    N2909    N        0.26693    0.99660    0.91649    1.000
    Si2910   Si       0.30085    0.99166    0.88867    1.000
    N2911    N        0.32527    0.97230    0.91915    1.000
    N2912    N        0.27782    0.97945    0.98500    1.000
    Si2913   Si       0.28756    0.96726    0.94378    1.000
    N2914    N        0.36556    0.99987    0.96891    1.000
    Si2915   Si       0.36599    0.97465    0.93381    1.000
    Si2916   Si       0.40271    0.99024    0.87208    1.000
    Si2917   Si       0.46951    0.99345    0.90004    1.000
    Si2918   Si       0.48546    0.96162    0.96361    1.000
    N2919    N        0.43193    0.97144    0.89813    1.000
    N2920    N        0.47796    0.99748    0.98661    1.000
    N2921    N        0.58524    0.05024    0.08655    1.000
    N2922    N        0.51551    0.03166    0.10098    1.000
    N2923    N        0.51474    0.03606    0.02969    1.000
    Si2924   Si       0.54476    0.06318    0.10288    1.000
    Si2925   Si       0.69964    0.03789    0.04122    1.000
    N2926    N        0.66660    0.03563    0.11547    1.000
    N2927    N        0.65800    0.02610    0.05186    1.000
    N2928    N        0.71415    0.06167    0.07687    1.000
    N2929    N        0.71980    0.00812    0.01615    1.000
    Si2930   Si       0.63565    0.00663    0.01829    1.000
    N2931    N        0.50804    0.02715    0.17056    1.000
    Si2932   Si       0.55382    0.04910    0.24277    1.000
    Si2933   Si       0.50034    0.01169    0.20837    1.000
    N2934    N        0.65796    0.03685    0.23407    1.000
    Si2935   Si       0.67888    0.02093    0.15378    1.000
    N2936    N        0.64194    0.01338    0.17304    1.000
    Si2937   Si       0.69875    0.04179    0.24427    1.000
    Si2938   Si       0.64694    0.04991    0.19431    1.000
    N2939    N        0.73329    0.01764    0.22920    1.000
    N2940    N        0.68618    0.05668    0.17607    1.000
    Si2941   Si       0.56399    0.02460    0.34430    1.000
    N2942    N        0.57467    0.06162    0.32214    1.000
    N2943    N        0.59367    0.05110    0.25666    1.000
    Si2944   Si       0.61132    0.05557    0.29968    1.000
    N2945    N        0.52540    0.05984    0.27343    1.000
    N2946    N        0.69747    0.04522    0.28747    1.000
    Si2947   Si       0.71951    0.01579    0.31141    1.000
    N2948    N        0.62537    0.01466    0.29553    1.000
    Si2949   Si       0.62392    0.01644    0.25079    1.000
    Si2950   Si       0.59282    0.05724    0.47396    1.000
    Si2951   Si       0.50498    0.05885    0.37868    1.000
    N2952    N        0.54347    0.04026    0.37934    1.000
    N2953    N        0.52998    0.02209    0.47784    1.000
    N2954    N        0.59710    0.03307    0.43822    1.000
    Si2955   Si       0.56989    0.02061    0.40707    1.000
    N2956    N        0.59357    0.00924    0.37266    1.000
    N2957    N        0.72015    0.03233    0.46783    1.000
    Si2958   Si       0.70628    0.04253    0.42742    1.000
    N2959    N        0.66330    0.04544    0.42946    1.000
    N2960    N        0.53189    0.03828    0.53793    1.000
    N2961    N        0.58196    0.05654    0.58663    1.000
    N2962    N        0.59534    0.03231    0.51098    1.000
    Si2963   Si       0.61014    0.04337    0.55035    1.000
    Si2964   Si       0.51830    0.06109    0.49953    1.000
    N2965    N        0.64291    0.01853    0.56978    1.000
    N2966    N        0.70305    0.04362    0.54090    1.000
    Si2967   Si       0.66966    0.05948    0.57128    1.000
    Si2968   Si       0.70771    0.05888    0.49805    1.000
    Si2969   Si       0.52521    0.01633    0.72876    1.000
    Si2970   Si       0.58151    0.03828    0.62693    1.000
    N2971    N        0.50686    0.05475    0.71103    1.000
    N2972    N        0.56523    0.02124    0.71272    1.000
    Si2973   Si       0.59328    0.05336    0.69864    1.000
    N2974    N        0.54037    0.03929    0.64436    1.000
    N2975    N        0.61134    0.05219    0.65903    1.000
    Si2976   Si       0.50964    0.01020    0.62705    1.000
    Si2977   Si       0.53119    0.06631    0.67558    1.000
    N2978    N        0.72806    0.01442    0.66126    1.000
    N2979    N        0.68868    0.02686    0.72185    1.000
    Si2980   Si       0.70881    0.04428    0.68815    1.000
    N2981    N        0.62413    0.05567    0.72987    1.000
    Si2982   Si       0.66581    0.05816    0.73998    1.000
    N2983    N        0.58137    0.04870    0.78517    1.000
    N2984    N        0.54813    0.03384    0.84206    1.000
    Si2985   Si       0.55407    0.02034    0.80237    1.000
    N2986    N        0.52398    0.01766    0.77217    1.000
    N2987    N        0.61649    0.02126    0.85958    1.000
    Si2988   Si       0.58097    0.04668    0.87049    1.000
    Si2989   Si       0.51836    0.06482    0.83947    1.000
    Si2990   Si       0.61685    0.03340    0.76601    1.000
    N2991    N        0.65557    0.04247    0.78396    1.000
    Si2992   Si       0.65705    0.03617    0.87038    1.000
    Si2993   Si       0.73037    0.01552    0.85920    1.000
    N2994    N        0.68842    0.01482    0.84363    1.000
    N2995    N        0.55589    0.03083    0.90325    1.000
    Si2996   Si       0.57337    0.02104    0.94110    1.000
    N2997    N        0.51507    0.05638    0.95533    1.000
    Si2998   Si       0.51325    0.02356    0.98747    1.000
    N2999    N        0.57981    0.06084    0.96072    1.000
    Si3000   Si       0.61511    0.06494    0.98352    1.000
    N3001    N        0.66457    0.03034    0.91314    1.000
    N3002    N        0.72978    0.04480    0.89002    1.000
    Si3003   Si       0.70607    0.04030    0.92611    1.000
    N3004    N        0.72007    0.01279    0.95401    1.000
    N3005    N        0.63333    0.02416    0.97931    1.000
    N3006    N        0.52742    0.09626    0.07715    1.000
    Si3007   Si       0.50913    0.07846    0.03711    1.000
    Si3008   Si       0.60884    0.07927    0.06535    1.000
    N3009    N        0.52699    0.10117    0.00342    1.000
    N3010    N        0.59369    0.11987    0.07427    1.000
    N3011    N        0.61057    0.07864    0.02232    1.000
    Si3012   Si       0.65568    0.09565    0.01925    1.000
    N3013    N        0.65347    0.09103    0.06677    1.000
    Si3014   Si       0.68020    0.07749    0.09888    1.000
    N3015    N        0.69109    0.07085    0.01358    1.000
    Si3016   Si       0.57797    0.08853    0.17617    1.000
    N3017    N        0.54900    0.07749    0.14357    1.000
    N3018    N        0.55151    0.07254    0.20707    1.000
    Si3019   Si       0.51911    0.07045    0.17676    1.000
    Si3020   Si       0.63676    0.12476    0.18613    1.000
    Si3021   Si       0.70077    0.09636    0.16920    1.000
    N3022    N        0.69394    0.10738    0.12792    1.000
    N3023    N        0.67773    0.11860    0.20109    1.000
    Si3024   Si       0.70528    0.11392    0.23352    1.000
    N3025    N        0.72413    0.07713    0.23127    1.000
    N3026    N        0.61957    0.08297    0.18046    1.000
    N3027    N        0.51094    0.08726    0.34389    1.000
    Si3028   Si       0.53765    0.08075    0.30985    1.000
    N3029    N        0.54814    0.11820    0.29405    1.000
    N3030    N        0.71692    0.09918    0.32115    1.000
    N3031    N        0.64000    0.08374    0.31597    1.000
    N3032    N        0.67616    0.10803    0.26502    1.000
    Si3033   Si       0.68102    0.08289    0.30001    1.000
    Si3034   Si       0.62758    0.12474    0.32735    1.000
    N3035    N        0.55409    0.08244    0.48022    1.000
    N3036    N        0.50317    0.07643    0.41980    1.000
    Si3037   Si       0.51623    0.11870    0.42157    1.000
    Si3038   Si       0.53800    0.12168    0.49585    1.000
    N3039    N        0.61200    0.09545    0.40254    1.000
    Si3040   Si       0.59264    0.13158    0.39860    1.000
    N3041    N        0.66799    0.11689    0.42201    1.000
    Si3042   Si       0.64196    0.08373    0.43176    1.000
    N3043    N        0.62950    0.08310    0.47402    1.000
    N3044    N        0.72648    0.07679    0.40949    1.000
    Si3045   Si       0.71076    0.11590    0.41501    1.000
    N3046    N        0.57563    0.10872    0.55609    1.000
    N3047    N        0.51823    0.09275    0.58751    1.000
    N3048    N        0.51416    0.10001    0.52500    1.000
    Si3049   Si       0.60133    0.09827    0.59475    1.000
    Si3050   Si       0.54796    0.07360    0.56178    1.000
    Si3051   Si       0.48887    0.10475    0.56036    1.000
    N3052    N        0.63911    0.07670    0.54213    1.000
    N3053    N        0.69810    0.09910    0.57353    1.000
    Si3054   Si       0.72401    0.10552    0.53726    1.000
    Si3055   Si       0.64405    0.10208    0.50999    1.000
    Si3056   Si       0.66646    0.12000    0.59464    1.000
    N3057    N        0.64772    0.08017    0.60789    1.000
    N3058    N        0.68811    0.10004    0.50309    1.000
    Si3059   Si       0.73707    0.08825    0.59559    1.000
    Si3060   Si       0.52830    0.11621    0.62200    1.000
    N3061    N        0.57291    0.11260    0.62670    1.000
    N3062    N        0.56608    0.08506    0.69349    1.000
    N3063    N        0.50549    0.09746    0.65493    1.000
    Si3064   Si       0.55960    0.12058    0.71565    1.000
    N3065    N        0.74055    0.07169    0.70410    1.000
    N3066    N        0.68158    0.07260    0.67412    1.000
    N3067    N        0.68507    0.09626    0.73510    1.000
    Si3068   Si       0.70751    0.10071    0.69868    1.000
    N3069    N        0.63548    0.12397    0.66072    1.000
    Si3070   Si       0.64492    0.08101    0.65129    1.000
    N3071    N        0.53858    0.09385    0.81163    1.000
    Si3072   Si       0.57857    0.09158    0.79120    1.000
    N3073    N        0.57276    0.12085    0.75786    1.000
    Si3074   Si       0.73776    0.09717    0.80459    1.000
    N3075    N        0.62074    0.10025    0.80511    1.000
    N3076    N        0.69463    0.09666    0.79942    1.000
    Si3077   Si       0.65767    0.07924    0.81185    1.000
    N3078    N        0.65552    0.07657    0.85521    1.000
    Si3079   Si       0.62904    0.10785    0.86943    1.000
    N3080    N        0.58899    0.08944    0.87461    1.000
    N3081    N        0.54736    0.11871    0.93465    1.000
    N3082    N        0.51858    0.08362    0.88080    1.000
    Si3083   Si       0.55227    0.11623    0.89032    1.000
    Si3084   Si       0.54654    0.08721    0.96429    1.000
    Si3085   Si       0.49838    0.06909    0.91688    1.000
    N3086    N        0.64463    0.09451    0.97312    1.000
    Si3087   Si       0.67008    0.10702    0.94003    1.000
    N3088    N        0.64211    0.11754    0.91111    1.000
    N3089    N        0.70398    0.08041    0.94688    1.000
    N3090    N        0.72103    0.12224    0.89441    1.000
    Si3091   Si       0.72073    0.08801    0.98525    1.000
    N3092    N        0.53918    0.15820    0.04631    1.000
    Si3093   Si       0.52205    0.14412    0.00972    1.000
    Si3094   Si       0.55298    0.13355    0.07885    1.000
    N3095    N        0.60393    0.17374    0.02856    1.000
    N3096    N        0.54304    0.15497    0.11767    1.000
    Si3097   Si       0.62652    0.14596    0.05524    1.000
    N3098    N        0.65271    0.16466    0.08577    1.000
    Si3099   Si       0.69046    0.16966    0.06577    1.000
    N3100    N        0.65676    0.14186    0.02035    1.000
    N3101    N        0.71962    0.13879    0.07279    1.000
    N3102    N        0.72373    0.12677    0.00282    1.000
    Si3103   Si       0.72890    0.12914    0.11360    1.000
    Si3104   Si       0.50462    0.17059    0.12907    1.000
    N3105    N        0.49967    0.17285    0.17319    1.000
    Si3106   Si       0.57101    0.16858    0.14810    1.000
    N3107    N        0.54533    0.15984    0.23966    1.000
    N3108    N        0.57687    0.13299    0.17415    1.000
    Si3109   Si       0.57763    0.15207    0.21380    1.000
    Si3110   Si       0.52675    0.18557    0.20731    1.000
    Si3111   Si       0.71046    0.18848    0.23526    1.000
    N3112    N        0.61873    0.14071    0.22221    1.000
    N3113    N        0.64512    0.16042    0.16216    1.000
    Si3114   Si       0.64230    0.18141    0.12252    1.000
    N3115    N        0.73141    0.14817    0.23862    1.000
    N3116    N        0.70553    0.18562    0.19302    1.000
    Si3117   Si       0.73752    0.15888    0.17948    1.000
    N3118    N        0.67052    0.17766    0.25123    1.000
    N3119    N        0.52023    0.15909    0.34593    1.000
    Si3120   Si       0.53724    0.15805    0.28465    1.000
    Si3121   Si       0.56221    0.17054    0.35077    1.000
    N3122    N        0.60131    0.14769    0.35717    1.000
    N3123    N        0.49804    0.17824    0.28698    1.000
    N3124    N        0.56741    0.18202    0.30888    1.000
    Si3125   Si       0.49607    0.12576    0.35561    1.000
    N3126    N        0.62579    0.14972    0.29187    1.000
    Si3127   Si       0.64735    0.14128    0.25642    1.000
    N3128    N        0.66419    0.14120    0.34404    1.000
    Si3129   Si       0.70627    0.13543    0.34174    1.000
    N3130    N        0.73325    0.16636    0.32665    1.000
    Si3131   Si       0.64030    0.17182    0.36394    1.000
    N3132    N        0.51043    0.13471    0.46192    1.000
    N3133    N        0.61091    0.16452    0.41975    1.000
    N3134    N        0.55199    0.13366    0.40508    1.000
    N3135    N        0.66922    0.16201    0.46920    1.000
    Si3136   Si       0.70264    0.13912    0.48466    1.000
    N3137    N        0.72922    0.13017    0.45173    1.000
    Si3138   Si       0.65263    0.15701    0.42973    1.000
    N3139    N        0.72179    0.13979    0.38283    1.000
    Si3140   Si       0.59096    0.14719    0.54021    1.000
    N3141    N        0.56686    0.15308    0.50392    1.000
    N3142    N        0.58474    0.18147    0.56554    1.000
    N3143    N        0.51907    0.15869    0.61337    1.000
    Si3144   Si       0.61354    0.17671    0.59632    1.000
    N3145    N        0.63058    0.14235    0.51717    1.000
    N3146    N        0.72774    0.14642    0.52085    1.000
    N3147    N        0.62683    0.13602    0.58626    1.000
    Si3148   Si       0.64783    0.17878    0.50224    1.000
    Si3149   Si       0.71516    0.18336    0.61703    1.000
    N3150    N        0.68536    0.15255    0.61887    1.000
    N3151    N        0.73489    0.18243    0.57914    1.000
    N3152    N        0.59699    0.17673    0.63533    1.000
    Si3153   Si       0.59263    0.13918    0.65458    1.000
    N3154    N        0.52054    0.14077    0.72007    1.000
    N3155    N        0.57633    0.15172    0.69227    1.000
    Si3156   Si       0.54241    0.17851    0.70707    1.000
    N3157    N        0.70041    0.14213    0.68593    1.000
    Si3158   Si       0.70828    0.17336    0.71420    1.000
    Si3159   Si       0.66792    0.15321    0.65780    1.000
    N3160    N        0.51769    0.15379    0.78725    1.000
    N3161    N        0.58464    0.16018    0.81322    1.000
    Si3162   Si       0.55939    0.15721    0.77707    1.000
    Si3163   Si       0.57269    0.17132    0.85561    1.000
    N3164    N        0.53787    0.14276    0.85834    1.000
    Si3165   Si       0.51813    0.12763    0.82231    1.000
    Si3166   Si       0.49414    0.13791    0.75310    1.000
    N3167    N        0.65947    0.15314    0.78283    1.000
    Si3168   Si       0.62527    0.14347    0.80820    1.000
    N3169    N        0.63912    0.14717    0.85135    1.000
    N3170    N        0.71962    0.15253    0.75168    1.000
    Si3171   Si       0.68928    0.12493    0.76591    1.000
    Si3172   Si       0.55981    0.16008    0.94527    1.000
    N3173    N        0.58457    0.15519    0.89572    1.000
    N3174    N        0.60394    0.15782    0.95861    1.000
    N3175    N        0.54449    0.17637    0.98789    1.000
    N3176    N        0.68884    0.14780    0.95220    1.000
    Si3177   Si       0.69223    0.15758    0.99748    1.000
    Si3178   Si       0.62120    0.15494    0.91888    1.000
    Si3179   Si       0.72657    0.14878    0.92765    1.000
    Si3180   Si       0.63080    0.16816    0.99343    1.000
    N3181    N        0.64733    0.18750    0.90832    1.000
    N3182    N        0.55861    0.23062    0.03297    1.000
    N3183    N        0.55761    0.23868    0.10199    1.000
    Si3184   Si       0.56384    0.18914    0.02589    1.000
    Si3185   Si       0.59748    0.23377    0.12117    1.000
    N3186    N        0.70877    0.20513    0.08510    1.000
    Si3187   Si       0.68566    0.22253    0.00703    1.000
    Si3188   Si       0.70060    0.23231    0.11838    1.000
    N3189    N        0.70599    0.18780    0.02574    1.000
    Si3190   Si       0.74289    0.20223    0.05458    1.000
    N3191    N        0.59950    0.19079    0.12575    1.000
    N3192    N        0.56888    0.19289    0.18844    1.000
    N3193    N        0.50367    0.21201    0.23055    1.000
    Si3194   Si       0.59618    0.22670    0.19190    1.000
    N3195    N        0.49189    0.21327    0.12246    1.000
    N3196    N        0.66559    0.21454    0.13977    1.000
    Si3197   Si       0.66701    0.19569    0.17853    1.000
    Si3198   Si       0.65047    0.21518    0.24603    1.000
    N3199    N        0.73776    0.23165    0.14020    1.000
    N3200    N        0.63870    0.21846    0.20367    1.000
    N3201    N        0.51423    0.23324    0.33417    1.000
    Si3202   Si       0.49726    0.19248    0.32872    1.000
    Si3203   Si       0.60938    0.18971    0.30403    1.000
    Si3204   Si       0.53964    0.23805    0.36903    1.000
    N3205    N        0.61492    0.21966    0.26890    1.000
    N3206    N        0.63337    0.20500    0.33611    1.000
    N3207    N        0.73693    0.20923    0.26178    1.000
    Si3208   Si       0.73197    0.24131    0.34377    1.000
    Si3209   Si       0.71549    0.24253    0.27843    1.000
    N3210    N        0.69816    0.23975    0.31645    1.000
    Si3211   Si       0.65868    0.24039    0.33706    1.000
    N3212    N        0.56618    0.20554    0.37749    1.000
    Si3213   Si       0.58497    0.19867    0.41906    1.000
    N3214    N        0.55500    0.19901    0.45055    1.000
    Si3215   Si       0.52135    0.22607    0.44682    1.000
    N3216    N        0.60209    0.23929    0.42320    1.000
    Si3217   Si       0.57349    0.19488    0.49149    1.000
    N3218    N        0.51682    0.24288    0.40608    1.000
    N3219    N        0.72388    0.20928    0.37247    1.000
    N3220    N        0.61411    0.20361    0.48558    1.000
    N3221    N        0.66478    0.18681    0.39855    1.000
    Si3222   Si       0.69239    0.21965    0.39898    1.000
    N3223    N        0.71992    0.23139    0.43221    1.000
    Si3224   Si       0.62008    0.24398    0.46427    1.000
    N3225    N        0.55404    0.21969    0.52054    1.000
    Si3226   Si       0.56203    0.22071    0.56341    1.000
    N3227    N        0.53386    0.22144    0.59664    1.000
    N3228    N        0.63926    0.21014    0.59041    1.000
    N3229    N        0.68015    0.20052    0.52334    1.000
    Si3230   Si       0.71831    0.20098    0.54217    1.000
    N3231    N        0.69798    0.22265    0.62276    1.000
    N3232    N        0.55192    0.20777    0.66876    1.000
    Si3233   Si       0.59682    0.20767    0.66846    1.000
    N3234    N        0.50950    0.20795    0.71352    1.000
    Si3235   Si       0.53389    0.19552    0.63074    1.000
    N3236    N        0.49347    0.21729    0.64180    1.000
    N3237    N        0.61079    0.21139    0.71054    1.000
    Si3238   Si       0.51769    0.24189    0.67559    1.000
    Si3239   Si       0.53735    0.23042    0.74333    1.000
    N3240    N        0.67125    0.18896    0.72966    1.000
    Si3241   Si       0.65290    0.21690    0.70115    1.000
    Si3242   Si       0.65415    0.22406    0.63008    1.000
    N3243    N        0.72747    0.20928    0.70205    1.000
    N3244    N        0.65677    0.19456    0.66357    1.000
    N3245    N        0.61961    0.24240    0.65109    1.000
    N3246    N        0.50795    0.22716    0.77595    1.000
    N3247    N        0.54596    0.20540    0.86248    1.000
    Si3248   Si       0.57910    0.23532    0.86756    1.000
    Si3249   Si       0.49401    0.19017    0.79120    1.000
    Si3250   Si       0.59976    0.21581    0.75155    1.000
    N3251    N        0.60890    0.20936    0.84967    1.000
    N3252    N        0.56105    0.19138    0.75013    1.000
    Si3253   Si       0.63421    0.23462    0.82199    1.000
    N3254    N        0.66677    0.22519    0.84970    1.000
    N3255    N        0.70189    0.21908    0.78533    1.000
    N3256    N        0.62946    0.21492    0.78148    1.000
    Si3257   Si       0.66727    0.19328    0.77331    1.000
    Si3258   Si       0.64525    0.18881    0.86605    1.000
    Si3259   Si       0.53099    0.21176    0.96620    1.000
    Si3260   Si       0.51854    0.21226    0.89411    1.000
    N3261    N        0.53516    0.19126    0.92791    1.000
    N3262    N        0.49050    0.22010    0.97630    1.000
    N3263    N        0.73715    0.23691    0.87488    1.000
    N3264    N        0.72002    0.19184    0.92150    1.000
    N3265    N        0.66305    0.19411    0.98009    1.000
    Si3266   Si       0.67930    0.19049    0.93820    1.000
    N3267    N        0.71330    0.24527    0.98236    1.000
    N3268    N        0.60196    0.27693    0.02226    1.000
    N3269    N        0.50072    0.26702    0.07202    1.000
    Si3270   Si       0.57936    0.25229    0.06562    1.000
    N3271    N        0.56830    0.29381    0.06876    1.000
    Si3272   Si       0.56233    0.26378    0.00587    1.000
    N3273    N        0.53825    0.29878    0.01183    1.000
    Si3274   Si       0.52645    0.29767    0.05355    1.000
    Si3275   Si       0.51643    0.24845    0.10938    1.000
    Si3276   Si       0.65374    0.26628    0.06961    1.000
    N3277    N        0.68510    0.26912    0.10063    1.000
    N3278    N        0.66457    0.25558    0.02777    1.000
    Si3279   Si       0.63968    0.28217    0.00051    1.000
    N3280    N        0.61799    0.24582    0.08427    1.000
    N3281    N        0.58334    0.26001    0.21815    1.000
    N3282    N        0.59663    0.25568    0.15763    1.000
    N3283    N        0.50974    0.27189    0.14633    1.000
    Si3284   Si       0.58704    0.28967    0.18284    1.000
    N3285    N        0.72209    0.27731    0.19203    1.000
    Si3286   Si       0.70365    0.27720    0.23160    1.000
    N3287    N        0.68625    0.24007    0.24467    1.000
    Si3288   Si       0.58578    0.27461    0.32709    1.000
    Si3289   Si       0.59300    0.25725    0.25935    1.000
    N3290    N        0.56313    0.25967    0.29283    1.000
    Si3291   Si       0.51843    0.26450    0.30400    1.000
    N3292    N        0.49663    0.27636    0.26446    1.000
    N3293    N        0.56865    0.27487    0.36832    1.000
    N3294    N        0.51663    0.30118    0.32734    1.000
    N3295    N        0.62474    0.29051    0.25989    1.000
    N3296    N        0.63031    0.27140    0.32611    1.000
    N3297    N        0.73068    0.28146    0.26721    1.000
    N3298    N        0.59881    0.27413    0.48841    1.000
    N3299    N        0.53046    0.25808    0.47384    1.000
    Si3300   Si       0.55834    0.28990    0.47475    1.000
    Si3301   Si       0.59465    0.27666    0.40479    1.000
    N3302    N        0.57706    0.30137    0.43665    1.000
    Si3303   Si       0.48918    0.27529    0.41059    1.000
    Si3304   Si       0.70085    0.26128    0.45480    1.000
    Si3305   Si       0.67186    0.29369    0.39720    1.000
    N3306    N        0.67434    0.25447    0.37845    1.000
    N3307    N        0.69888    0.29735    0.43148    1.000
    N3308    N        0.66229    0.24941    0.46799    1.000
    N3309    N        0.71459    0.26643    0.49528    1.000
    N3310    N        0.63101    0.30207    0.40807    1.000
    N3311    N        0.54468    0.29338    0.52703    1.000
    Si3312   Si       0.52721    0.25393    0.51584    1.000
    N3313    N        0.59020    0.25622    0.56862    1.000
    Si3314   Si       0.50151    0.25031    0.61080    1.000
    Si3315   Si       0.57343    0.29665    0.55977    1.000
    N3316    N        0.49006    0.24749    0.53492    1.000
    N3317    N        0.71462    0.29545    0.61371    1.000
    N3318    N        0.65771    0.26718    0.60505    1.000
    N3319    N        0.64830    0.26462    0.53257    1.000
    Si3320   Si       0.70167    0.25679    0.59647    1.000
    Si3321   Si       0.62573    0.29771    0.51420    1.000
    Si3322   Si       0.63316    0.24932    0.57053    1.000
    Si3323   Si       0.73757    0.27446    0.53194    1.000
    Si3324   Si       0.67791    0.24315    0.50968    1.000
    N3325    N        0.71463    0.24530    0.55774    1.000
    N3326    N        0.52691    0.27014    0.64131    1.000
    Si3327   Si       0.57420    0.28377    0.72656    1.000
    N3328    N        0.53945    0.26440    0.70949    1.000
    Si3329   Si       0.50133    0.28580    0.71931    1.000
    N3330    N        0.60841    0.28249    0.70093    1.000
    Si3331   Si       0.61754    0.28313    0.65942    1.000
    N3332    N        0.73721    0.25632    0.74779    1.000
    N3333    N        0.66727    0.25260    0.72362    1.000
    N3334    N        0.72533    0.28055    0.68469    1.000
    Si3335   Si       0.64363    0.28961    0.72427    1.000
    N3336    N        0.56474    0.27205    0.84739    1.000
    Si3337   Si       0.52526    0.27638    0.86433    1.000
    N3338    N        0.49957    0.25654    0.83579    1.000
    N3339    N        0.57537    0.25225    0.75848    1.000
    N3340    N        0.50005    0.29311    0.76493    1.000
    Si3341   Si       0.58911    0.30120    0.83037    1.000
    Si3342   Si       0.71245    0.29579    0.81861    1.000
    N3343    N        0.62443    0.27669    0.82267    1.000
    N3344    N        0.68409    0.28625    0.78592    1.000
    N3345    N        0.69119    0.28955    0.85655    1.000
    Si3346   Si       0.69414    0.25469    0.75781    1.000
    N3347    N        0.53207    0.25404    0.90124    1.000
    Si3348   Si       0.56462    0.26603    0.92954    1.000
    N3349    N        0.59902    0.25024    0.90587    1.000
    N3350    N        0.55512    0.24667    0.96637    1.000
    Si3351   Si       0.69500    0.24898    0.87552    1.000
    Si3352   Si       0.63683    0.26364    0.92202    1.000
    N3353    N        0.67991    0.25360    0.91596    1.000
    N3354    N        0.63281    0.26105    0.96473    1.000
    Si3355   Si       0.70496    0.26931    0.94756    1.000
    N3356    N        0.68742    0.30353    0.97220    1.000
    N3357    N        0.51275    0.33361    0.07041    1.000
    Si3358   Si       0.60185    0.31252    0.04841    1.000
    N3359    N        0.58833    0.35131    0.03876    1.000
    Si3360   Si       0.50959    0.35463    0.10735    1.000
    Si3361   Si       0.48945    0.36417    0.04707    1.000
    Si3362   Si       0.73330    0.35143    0.06619    1.000
    N3363    N        0.70075    0.33730    0.09124    1.000
    Si3364   Si       0.67186    0.34061    0.05915    1.000
    N3365    N        0.70419    0.34504    0.03128    1.000
    N3366    N        0.64307    0.30866    0.06167    1.000
    Si3367   Si       0.70074    0.30470    0.11834    1.000
    Si3368   Si       0.57256    0.35181    0.14336    1.000
    N3369    N        0.55726    0.31799    0.16454    1.000
    N3370    N        0.49736    0.34466    0.14775    1.000
    Si3371   Si       0.51295    0.30791    0.16782    1.000
    N3372    N        0.49674    0.31994    0.20752    1.000
    N3373    N        0.61230    0.34222    0.12892    1.000
    Si3374   Si       0.64128    0.34071    0.15835    1.000
    Si3375   Si       0.70198    0.31513    0.18608    1.000
    Si3376   Si       0.63812    0.31945    0.23150    1.000
    N3377    N        0.67650    0.31459    0.15282    1.000
    N3378    N        0.68009    0.31313    0.22657    1.000
    N3379    N        0.72226    0.35231    0.18898    1.000
    N3380    N        0.61973    0.31705    0.18999    1.000
    N3381    N        0.51865    0.34326    0.27350    1.000
    N3382    N        0.59103    0.31732    0.31604    1.000
    Si3383   Si       0.51302    0.34312    0.31774    1.000
    N3384    N        0.54479    0.35153    0.35259    1.000
    Si3385   Si       0.58596    0.35620    0.33170    1.000
    Si3386   Si       0.53897    0.30906    0.36610    1.000
    Si3387   Si       0.72888    0.32011    0.35709    1.000
    N3388    N        0.65736    0.33847    0.30529    1.000
    Si3389   Si       0.65954    0.35151    0.34847    1.000
    N3390    N        0.73143    0.33701    0.31627    1.000
    Si3391   Si       0.63019    0.30634    0.30118    1.000
    N3392    N        0.68704    0.32777    0.37371    1.000
    N3393    N        0.61808    0.35848    0.36032    1.000
    N3394    N        0.63252    0.35873    0.24524    1.000
    Si3395   Si       0.50967    0.33738    0.43774    1.000
    N3396    N        0.52993    0.32549    0.47373    1.000
    N3397    N        0.51423    0.31085    0.40291    1.000
    Si3398   Si       0.61338    0.32525    0.44201    1.000
    Si3399   Si       0.66265    0.35892    0.49496    1.000
    N3400    N        0.63589    0.32681    0.47969    1.000
    N3401    N        0.70357    0.34322    0.49480    1.000
    Si3402   Si       0.71480    0.33207    0.45347    1.000
    Si3403   Si       0.51967    0.32743    0.51634    1.000
    N3404    N        0.54675    0.31864    0.58802    1.000
    N3405    N        0.60823    0.32014    0.54737    1.000
    N3406    N        0.49336    0.35808    0.59922    1.000
    Si3407   Si       0.53290    0.35917    0.58119    1.000
    N3408    N        0.52327    0.36422    0.53805    1.000
    N3409    N        0.73231    0.31489    0.54726    1.000
    N3410    N        0.67171    0.33048    0.58514    1.000
    Si3411   Si       0.71588    0.33003    0.58324    1.000
    Si3412   Si       0.63629    0.35020    0.56672    1.000
    Si3413   Si       0.67100    0.30517    0.62063    1.000
    Si3414   Si       0.73672    0.34815    0.52047    1.000
    N3415    N        0.49158    0.32719    0.71153    1.000
    Si3416   Si       0.55703    0.35378    0.69324    1.000
    N3417    N        0.56615    0.32736    0.72622    1.000
    N3418    N        0.53127    0.33764    0.66028    1.000
    Si3419   Si       0.54536    0.30867    0.63096    1.000
    N3420    N        0.58856    0.30572    0.63453    1.000
    Si3421   Si       0.60991    0.34408    0.63844    1.000
    N3422    N        0.67548    0.32087    0.71917    1.000
    Si3423   Si       0.71362    0.32076    0.70119    1.000
    N3424    N        0.64554    0.31862    0.64946    1.000
    Si3425   Si       0.66368    0.35896    0.73212    1.000
    N3426    N        0.72765    0.33969    0.66400    1.000
    N3427    N        0.57272    0.32775    0.79728    1.000
    N3428    N        0.59971    0.33249    0.85926    1.000
    Si3429   Si       0.59489    0.33585    0.75837    1.000
    N3430    N        0.72730    0.33562    0.80753    1.000
    N3431    N        0.64996    0.34318    0.80999    1.000
    Si3432   Si       0.62805    0.36141    0.84254    1.000
    N3433    N        0.62209    0.30196    0.75972    1.000
    Si3434   Si       0.64500    0.30250    0.79478    1.000
    N3435    N        0.51266    0.31563    0.87505    1.000
    N3436    N        0.50578    0.31684    0.94543    1.000
    Si3437   Si       0.53109    0.32614    0.91260    1.000
    Si3438   Si       0.60475    0.32713    0.90323    1.000
    Si3439   Si       0.52473    0.33017    0.98322    1.000
    N3440    N        0.56045    0.35437    0.97437    1.000
    N3441    N        0.57044    0.30783    0.91809    1.000
    Si3442   Si       0.59682    0.35451    0.99720    1.000
    N3443    N        0.64184    0.30730    0.91489    1.000
    Si3444   Si       0.71787    0.32882    0.99350    1.000
    Si3445   Si       0.65551    0.32634    0.95275    1.000
    N3446    N        0.65658    0.35753    0.87503    1.000
    N3447    N        0.71296    0.32910    0.90531    1.000
    Si3448   Si       0.67678    0.31920    0.88585    1.000
    N3449    N        0.62842    0.32597    0.98716    1.000
    N3450    N        0.52379    0.38778    0.03616    1.000
    Si3451   Si       0.55390    0.37105    0.06089    1.000
    N3452    N        0.55195    0.36879    0.10572    1.000
    N3453    N        0.57670    0.41161    0.06345    1.000
    Si3454   Si       0.61324    0.39655    0.04381    1.000
    N3455    N        0.48888    0.38764    0.08904    1.000
    N3456    N        0.65049    0.37819    0.05456    1.000
    Si3457   Si       0.72024    0.41255    0.10283    1.000
    Si3458   Si       0.67155    0.41526    0.06013    1.000
    N3459    N        0.67609    0.41793    0.10345    1.000
    N3460    N        0.71278    0.42318    0.05705    1.000
    Si3461   Si       0.56794    0.40910    0.11888    1.000
    N3462    N        0.50547    0.38787    0.21295    1.000
    Si3463   Si       0.57292    0.40468    0.20134    1.000
    N3464    N        0.56742    0.39105    0.16192    1.000
    N3465    N        0.57040    0.37941    0.23537    1.000
    N3466    N        0.65918    0.38074    0.15928    1.000
    Si3467   Si       0.69932    0.38701    0.17784    1.000
    N3468    N        0.68999    0.41270    0.21168    1.000
    N3469    N        0.72569    0.40361    0.14768    1.000
    Si3470   Si       0.64786    0.41614    0.13518    1.000
    N3471    N        0.57981    0.38491    0.29801    1.000
    Si3472   Si       0.60502    0.38962    0.26126    1.000
    Si3473   Si       0.52792    0.37816    0.24932    1.000
    N3474    N        0.52072    0.41427    0.27449    1.000
    Si3475   Si       0.66187    0.37086    0.27517    1.000
    N3476    N        0.68905    0.38775    0.34774    1.000
    Si3477   Si       0.71702    0.37781    0.31542    1.000
    N3478    N        0.70242    0.38104    0.27364    1.000
    N3479    N        0.64284    0.40862    0.27834    1.000
    Si3480   Si       0.71352    0.41377    0.24709    1.000
    Si3481   Si       0.53324    0.38264    0.38108    1.000
    Si3482   Si       0.56337    0.39042    0.43628    1.000
    N3483    N        0.57488    0.40220    0.39272    1.000
    N3484    N        0.52312    0.37691    0.42277    1.000
    N3485    N        0.49603    0.40218    0.37677    1.000
    Si3486   Si       0.49349    0.40842    0.41926    1.000
    N3487    N        0.49554    0.41514    0.49330    1.000
    N3488    N        0.59812    0.36427    0.43474    1.000
    Si3489   Si       0.70475    0.36993    0.38878    1.000
    N3490    N        0.65636    0.39462    0.40142    1.000
    N3491    N        0.66586    0.39748    0.47763    1.000
    Si3492   Si       0.61498    0.38238    0.39691    1.000
    N3493    N        0.71503    0.37148    0.43222    1.000
    Si3494   Si       0.66590    0.41691    0.43826    1.000
    Si3495   Si       0.73691    0.40934    0.44315    1.000
    N3496    N        0.55068    0.39768    0.59531    1.000
    Si3497   Si       0.59351    0.40660    0.59868    1.000
    Si3498   Si       0.50396    0.40406    0.53487    1.000
    N3499    N        0.61233    0.36530    0.60081    1.000
    N3500    N        0.64863    0.37445    0.53361    1.000
    N3501    N        0.72948    0.38459    0.54354    1.000
    Si3502   Si       0.65396    0.41594    0.51643    1.000
    N3503    N        0.73505    0.36192    0.60271    1.000
    Si3504   Si       0.72722    0.42115    0.52286    1.000
    N3505    N        0.54042    0.39246    0.70751    1.000
    Si3506   Si       0.49813    0.40769    0.69941    1.000
    Si3507   Si       0.56734    0.41621    0.73437    1.000
    N3508    N        0.59544    0.36391    0.67287    1.000
    N3509    N        0.62085    0.36418    0.73852    1.000
    N3510    N        0.66097    0.38408    0.69504    1.000
    Si3511   Si       0.73484    0.37669    0.64384    1.000
    N3512    N        0.73386    0.40051    0.70754    1.000
    N3513    N        0.70484    0.40759    0.64683    1.000
    Si3514   Si       0.73106    0.37787    0.74444    1.000
    Si3515   Si       0.69393    0.41216    0.69071    1.000
    Si3516   Si       0.61819    0.38579    0.70003    1.000
    N3517    N        0.56664    0.39547    0.77397    1.000
    N3518    N        0.55166    0.38525    0.83506    1.000
    Si3519   Si       0.58150    0.41452    0.81269    1.000
    N3520    N        0.50580    0.36192    0.78183    1.000
    Si3521   Si       0.54556    0.36478    0.79781    1.000
    Si3522   Si       0.52848    0.38774    0.87127    1.000
    N3523    N        0.61941    0.40360    0.83483    1.000
    N3524    N        0.69641    0.39653    0.82762    1.000
    N3525    N        0.69137    0.37279    0.76168    1.000
    Si3526   Si       0.68967    0.36070    0.80347    1.000
    Si3527   Si       0.56923    0.37995    0.93905    1.000
    N3528    N        0.54042    0.36725    0.90953    1.000
    N3529    N        0.60824    0.36672    0.92165    1.000
    N3530    N        0.57594    0.42220    0.94372    1.000
    N3531    N        0.61152    0.39562    0.99812    1.000
    Si3532   Si       0.64548    0.38338    0.90833    1.000
    N3533    N        0.67034    0.36575    0.93958    1.000
    N3534    N        0.73008    0.36396    0.97066    1.000
    N3535    N        0.73204    0.39688    0.91067    1.000
    Si3536   Si       0.71374    0.36451    0.93084    1.000
    N3537    N        0.52143    0.45616    0.03733    1.000
    Si3538   Si       0.54964    0.44577    0.06808    1.000
    N3539    N        0.53968    0.44140    0.11016    1.000
    N3540    N        0.60886    0.42555    0.11745    1.000
    Si3541   Si       0.50602    0.42182    0.01418    1.000
    Si3542   Si       0.61498    0.45661    0.08493    1.000
    N3543    N        0.74682    0.45104    0.11151    1.000
    N3544    N        0.63609    0.43844    0.05064    1.000
    Si3545   Si       0.58654    0.45546    0.23554    1.000
    N3546    N        0.55064    0.44025    0.21503    1.000
    N3547    N        0.50203    0.44978    0.17162    1.000
    Si3548   Si       0.50858    0.43198    0.21107    1.000
    Si3549   Si       0.50565    0.46003    0.12977    1.000
    N3550    N        0.61290    0.42450    0.21524    1.000
    N3551    N        0.65752    0.47606    0.22547    1.000
    N3552    N        0.65810    0.45029    0.16096    1.000
    Si3553   Si       0.65305    0.43897    0.20300    1.000
    N3554    N        0.55009    0.43775    0.33826    1.000
    N3555    N        0.58811    0.44603    0.27819    1.000
    Si3556   Si       0.58338    0.43610    0.36487    1.000
    Si3557   Si       0.52564    0.47459    0.33722    1.000
    Si3558   Si       0.55610    0.42269    0.29742    1.000
    N3559    N        0.74177    0.45322    0.37081    1.000
    N3560    N        0.62187    0.42952    0.34320    1.000
    Si3561   Si       0.62616    0.44145    0.30092    1.000
    N3562    N        0.70901    0.45085    0.26946    1.000
    Si3563   Si       0.66111    0.41992    0.36256    1.000
    N3564    N        0.50310    0.44605    0.43451    1.000
    Si3565   Si       0.52523    0.44099    0.47410    1.000
    Si3566   Si       0.59693    0.44201    0.47207    1.000
    N3567    N        0.58900    0.47181    0.38961    1.000
    N3568    N        0.56097    0.41928    0.46597    1.000
    N3569    N        0.62994    0.43996    0.43946    1.000
    Si3570   Si       0.70799    0.46347    0.39510    1.000
    N3571    N        0.67086    0.46079    0.37319    1.000
    N3572    N        0.70409    0.43511    0.42773    1.000
    N3573    N        0.52842    0.43850    0.54575    1.000
    Si3574   Si       0.53054    0.43420    0.58879    1.000
    N3575    N        0.54585    0.47209    0.60398    1.000
    Si3576   Si       0.53916    0.47789    0.53096    1.000
    N3577    N        0.49211    0.42922    0.61112    1.000
    N3578    N        0.60958    0.43955    0.57333    1.000
    Si3579   Si       0.61249    0.46810    0.54089    1.000
    N3580    N        0.61929    0.43981    0.50876    1.000
    Si3581   Si       0.68526    0.47029    0.56084    1.000
    N3582    N        0.67207    0.45917    0.60243    1.000
    N3583    N        0.68714    0.43766    0.53215    1.000
    Si3584   Si       0.62892    0.45832    0.60857    1.000
    N3585    N        0.73742    0.43609    0.59705    1.000
    Si3586   Si       0.57669    0.47122    0.63489    1.000
    N3587    N        0.50212    0.44914    0.68107    1.000
    N3588    N        0.54503    0.45375    0.73645    1.000
    N3589    N        0.59991    0.43336    0.63271    1.000
    N3590    N        0.60519    0.42425    0.71398    1.000
    Si3591   Si       0.52991    0.47615    0.70011    1.000
    Si3592   Si       0.70767    0.44593    0.62477    1.000
    N3593    N        0.71775    0.47218    0.65579    1.000
    Si3594   Si       0.63632    0.45489    0.72491    1.000
    N3595    N        0.67872    0.45036    0.70823    1.000
    N3596    N        0.56821    0.45480    0.80868    1.000
    Si3597   Si       0.53661    0.46201    0.78019    1.000
    N3598    N        0.50029    0.44074    0.79201    1.000
    N3599    N        0.64106    0.45740    0.76670    1.000
    N3600    N        0.65263    0.46676    0.84246    1.000
    N3601    N        0.70457    0.46405    0.80029    1.000
    Si3602   Si       0.71674    0.43454    0.83208    1.000
    Si3603   Si       0.62640    0.43696    0.86276    1.000
    Si3604   Si       0.66278    0.47508    0.79812    1.000
    N3605    N        0.71093    0.45387    0.87097    1.000
    N3606    N        0.58859    0.45299    0.87352    1.000
    Si3607   Si       0.50099    0.46023    0.87718    1.000
    Si3608   Si       0.56476    0.44569    0.90909    1.000
    Si3609   Si       0.54570    0.45864    0.96762    1.000
    Si3610   Si       0.60408    0.43237    0.97433    1.000
    N3611    N        0.51491    0.42908    0.97337    1.000
    N3612    N        0.53036    0.42791    0.88832    1.000
    N3613    N        0.57908    0.45984    0.99737    1.000
    N3614    N        0.55324    0.48228    0.92812    1.000
    N3615    N        0.63579    0.45940    0.96207    1.000
    Si3616   Si       0.72247    0.46474    0.97513    1.000
    N3617    N        0.64663    0.42560    0.89972    1.000
    N3618    N        0.70167    0.45015    0.94167    1.000
    Si3619   Si       0.72576    0.43903    0.90743    1.000
    Si3620   Si       0.66085    0.45708    0.92699    1.000
    N3621    N        0.55952    0.51991    0.02408    1.000
    Si3622   Si       0.52228    0.49664    0.02151    1.000
    Si3623   Si       0.57505    0.51960    0.08470    1.000
    Si3624   Si       0.59026    0.48945    0.02662    1.000
    N3625    N        0.49440    0.52639    0.03994    1.000
    N3626    N        0.58003    0.47839    0.06860    1.000
    N3627    N        0.68746    0.52977    0.06257    1.000
    Si3628   Si       0.64708    0.51550    0.06599    1.000
    Si3629   Si       0.71389    0.51153    0.03322    1.000
    N3630    N        0.62997    0.50798    0.02360    1.000
    Si3631   Si       0.73117    0.48927    0.09856    1.000
    N3632    N        0.64456    0.48613    0.09886    1.000
    N3633    N        0.69360    0.48676    0.00159    1.000
    N3634    N        0.73584    0.48421    0.05577    1.000
    N3635    N        0.57478    0.51858    0.13027    1.000
    Si3636   Si       0.49926    0.49515    0.18073    1.000
    N3637    N        0.50759    0.50318    0.13686    1.000
    N3638    N        0.51908    0.52351    0.20861    1.000
    N3639    N        0.59283    0.49675    0.22351    1.000
    Si3640   Si       0.56135    0.53009    0.22186    1.000
    Si3641   Si       0.60404    0.53731    0.15345    1.000
    Si3642   Si       0.53333    0.53544    0.12832    1.000
    Si3643   Si       0.73143    0.53344    0.14420    1.000
    N3644    N        0.63509    0.51193    0.16649    1.000
    Si3645   Si       0.66033    0.48844    0.14046    1.000
    Si3646   Si       0.63200    0.50819    0.21000    1.000
    N3647    N        0.70165    0.50208    0.13319    1.000
    N3648    N        0.55410    0.50522    0.34180    1.000
    Si3649   Si       0.58646    0.51140    0.37226    1.000
    N3650    N        0.49773    0.47285    0.36937    1.000
    N3651    N        0.50080    0.47849    0.30018    1.000
    N3652    N        0.62685    0.51732    0.35401    1.000
    Si3653   Si       0.66396    0.51796    0.30905    1.000
    N3654    N        0.69181    0.51975    0.27272    1.000
    N3655    N        0.69073    0.52183    0.34318    1.000
    Si3656   Si       0.67935    0.47978    0.26256    1.000
    N3657    N        0.64908    0.47933    0.29400    1.000
    N3658    N        0.59092    0.48372    0.46151    1.000
    Si3659   Si       0.52906    0.52057    0.46864    1.000
    N3660    N        0.51519    0.51619    0.42710    1.000
    Si3661   Si       0.59273    0.51406    0.49015    1.000
    Si3662   Si       0.49260    0.48178    0.41336    1.000
    Si3663   Si       0.61497    0.47763    0.42471    1.000
    N3664    N        0.52582    0.48105    0.48951    1.000
    N3665    N        0.63166    0.53445    0.48713    1.000
    N3666    N        0.70744    0.50343    0.40685    1.000
    N3667    N        0.64103    0.51063    0.41681    1.000
    Si3668   Si       0.66593    0.50520    0.37767    1.000
    Si3669   Si       0.52369    0.50997    0.59455    1.000
    N3670    N        0.51386    0.50628    0.55104    1.000
    N3671    N        0.57980    0.49367    0.52901    1.000
    N3672    N        0.61029    0.49651    0.61886    1.000
    N3673    N        0.72286    0.49427    0.55985    1.000
    N3674    N        0.64890    0.49212    0.54482    1.000
    Si3675   Si       0.65340    0.53071    0.52592    1.000
    Si3676   Si       0.72589    0.53575    0.54462    1.000
    N3677    N        0.49209    0.49972    0.62277    1.000
    N3678    N        0.50823    0.51030    0.71559    1.000
    Si3679   Si       0.59117    0.51055    0.69236    1.000
    N3680    N        0.57108    0.53020    0.72529    1.000
    N3681    N        0.56320    0.48614    0.67327    1.000
    Si3682   Si       0.53238    0.53022    0.74621    1.000
    Si3683   Si       0.72193    0.53594    0.72880    1.000
    Si3684   Si       0.70448    0.48448    0.69324    1.000
    N3685    N        0.68989    0.52473    0.69679    1.000
    N3686    N        0.62674    0.49511    0.70955    1.000
    Si3687   Si       0.62295    0.53773    0.62921    1.000
    Si3688   Si       0.64760    0.53446    0.70169    1.000
    N3689    N        0.66703    0.54057    0.62803    1.000
    Si3690   Si       0.51233    0.51731    0.82017    1.000
    N3691    N        0.59025    0.51969    0.84416    1.000
    N3692    N        0.52528    0.50474    0.78081    1.000
    N3693    N        0.52628    0.48880    0.85414    1.000
    Si3694   Si       0.56942    0.48099    0.84402    1.000
    N3695    N        0.72674    0.52926    0.78258    1.000
    N3696    N        0.65273    0.51805    0.79727    1.000
    N3697    N        0.70131    0.51779    0.84535    1.000
    Si3698   Si       0.69032    0.53659    0.80777    1.000
    Si3699   Si       0.68138    0.48615    0.86801    1.000
    Si3700   Si       0.61832    0.53732    0.81579    1.000
    Si3701   Si       0.52884    0.51796    0.94239    1.000
    N3702    N        0.51755    0.49543    0.97867    1.000
    N3703    N        0.64868    0.53115    0.96912    1.000
    Si3704   Si       0.65769    0.53464    0.92661    1.000
    N3705    N        0.66605    0.49589    0.90762    1.000
    Si3706   Si       0.65172    0.49008    0.98905    1.000
    Si3707   Si       0.51382    0.56221    0.05421    1.000
    N3708    N        0.53089    0.58098    0.01956    1.000
    N3709    N        0.53895    0.54504    0.08657    1.000
    N3710    N        0.61434    0.54088    0.07878    1.000
    N3711    N        0.60052    0.57431    0.00321    1.000
    Si3712   Si       0.55943    0.55445    0.99726    1.000
    Si3713   Si       0.62032    0.58322    0.09572    1.000
    N3714    N        0.66306    0.58803    0.09224    1.000
    N3715    N        0.66474    0.57517    0.02308    1.000
    Si3716   Si       0.68631    0.57259    0.05967    1.000
    Si3717   Si       0.63528    0.55076    0.00425    1.000
    N3718    N        0.72564    0.59135    0.06482    1.000
    N3719    N        0.73768    0.54302    0.01555    1.000
    N3720    N        0.52656    0.57026    0.15115    1.000
    N3721    N        0.58599    0.55392    0.19208    1.000
    Si3722   Si       0.61045    0.57178    0.22514    1.000
    N3723    N        0.49803    0.58791    0.24132    1.000
    N3724    N        0.61774    0.57700    0.13902    1.000
    N3725    N        0.72056    0.55503    0.21759    1.000
    Si3726   Si       0.68519    0.55233    0.24324    1.000
    N3727    N        0.64563    0.54847    0.22693    1.000
    Si3728   Si       0.72760    0.58760    0.18759    1.000
    N3729    N        0.71237    0.57289    0.14918    1.000
    N3730    N        0.58022    0.56376    0.32506    1.000
    N3731    N        0.51799    0.55260    0.29703    1.000
    Si3732   Si       0.57823    0.58322    0.28737    1.000
    Si3733   Si       0.54117    0.54581    0.33241    1.000
    N3734    N        0.51319    0.56031    0.36210    1.000
    Si3735   Si       0.50933    0.59250    0.28315    1.000
    N3736    N        0.57562    0.55481    0.25344    1.000
    Si3737   Si       0.62118    0.55816    0.34058    1.000
    N3738    N        0.64610    0.55839    0.30556    1.000
    Si3739   Si       0.72471    0.54926    0.34407    1.000
    N3740    N        0.72535    0.59051    0.32908    1.000
    N3741    N        0.68442    0.59386    0.26129    1.000
    Si3742   Si       0.52739    0.54921    0.40175    1.000
    N3743    N        0.51497    0.57948    0.43218    1.000
    Si3744   Si       0.59827    0.58288    0.40255    1.000
    N3745    N        0.57089    0.54765    0.39450    1.000
    N3746    N        0.56211    0.54280    0.48301    1.000
    N3747    N        0.49673    0.54123    0.49049    1.000
    N3748    N        0.63057    0.58657    0.37031    1.000
    N3749    N        0.73744    0.55965    0.38475    1.000
    Si3750   Si       0.72242    0.54052    0.42250    1.000
    Si3751   Si       0.64697    0.54360    0.44586    1.000
    Si3752   Si       0.69243    0.57650    0.48457    1.000
    N3753    N        0.68704    0.55858    0.44404    1.000
    N3754    N        0.62124    0.57725    0.43827    1.000
    N3755    N        0.53224    0.55353    0.59471    1.000
    N3756    N        0.60231    0.56829    0.60669    1.000
    N3757    N        0.58373    0.58170    0.54031    1.000
    Si3758   Si       0.56166    0.58208    0.61313    1.000
    Si3759   Si       0.56358    0.58384    0.50141    1.000
    Si3760   Si       0.49344    0.57848    0.59135    1.000
    Si3761   Si       0.61582    0.58832    0.56660    1.000
    N3762    N        0.65012    0.56131    0.55916    1.000
    N3763    N        0.71754    0.56354    0.57860    1.000
    Si3764   Si       0.67778    0.56605    0.59429    1.000
    N3765    N        0.69387    0.54387    0.51433    1.000
    Si3766   Si       0.59040    0.58536    0.67743    1.000
    N3767    N        0.55392    0.58259    0.65542    1.000
    N3768    N        0.61294    0.54455    0.67146    1.000
    N3769    N        0.57905    0.59618    0.71729    1.000
    Si3770   Si       0.59543    0.56217    0.74266    1.000
    N3771    N        0.50777    0.60157    0.70372    1.000
    N3772    N        0.73606    0.55599    0.64644    1.000
    N3773    N        0.70344    0.57447    0.74055    1.000
    N3774    N        0.67796    0.58594    0.67623    1.000
    Si3775   Si       0.67092    0.59346    0.71986    1.000
    N3776    N        0.63719    0.56514    0.72983    1.000
    Si3777   Si       0.69575    0.55005    0.65956    1.000
    N3778    N        0.52190    0.55962    0.82478    1.000
    N3779    N        0.53287    0.57257    0.75931    1.000
    Si3780   Si       0.55251    0.57413    0.79836    1.000
    N3781    N        0.59111    0.55669    0.78605    1.000
    Si3782   Si       0.49278    0.59118    0.83500    1.000
    N3783    N        0.62876    0.56994    0.84221    1.000
    N3784    N        0.68828    0.58079    0.81183    1.000
    Si3785   Si       0.71229    0.59507    0.77720    1.000
    Si3786   Si       0.60041    0.55289    0.87307    1.000
    N3787    N        0.55881    0.54505    0.95456    1.000
    Si3788   Si       0.52459    0.57901    0.90592    1.000
    Si3789   Si       0.58660    0.57021    0.92816    1.000
    N3790    N        0.56715    0.57783    0.88883    1.000
    N3791    N        0.50649    0.54048    0.91151    1.000
    Si3792   Si       0.73292    0.55503    0.92069    1.000
    N3793    N        0.61999    0.55058    0.91154    1.000
    N3794    N        0.69092    0.56244    0.92601    1.000
    Si3795   Si       0.52142    0.62335    0.01416    1.000
    N3796    N        0.59544    0.61710    0.08887    1.000
    Si3797   Si       0.50030    0.63517    0.08325    1.000
    N3798    N        0.52707    0.63014    0.11838    1.000
    N3799    N        0.52372    0.65147    0.04861    1.000
    Si3800   Si       0.57045    0.63865    0.11528    1.000
    N3801    N        0.70680    0.63858    0.11310    1.000
    N3802    N        0.65516    0.65344    0.05543    1.000
    Si3803   Si       0.74124    0.62366    0.09083    1.000
    Si3804   Si       0.61212    0.63681    0.24073    1.000
    N3805    N        0.58361    0.63553    0.15697    1.000
    N3806    N        0.52079    0.63161    0.18839    1.000
    Si3807   Si       0.51184    0.60859    0.15273    1.000
    N3808    N        0.57345    0.65083    0.23018    1.000
    Si3809   Si       0.49411    0.62646    0.22144    1.000
    Si3810   Si       0.68530    0.59902    0.12728    1.000
    Si3811   Si       0.61915    0.61256    0.16533    1.000
    N3812    N        0.62085    0.60939    0.20912    1.000
    N3813    N        0.65838    0.62405    0.15317    1.000
    N3814    N        0.72054    0.62407    0.20886    1.000
    N3815    N        0.54649    0.61379    0.28584    1.000
    Si3816   Si       0.54723    0.65360    0.26627    1.000
    N3817    N        0.61296    0.60552    0.27180    1.000
    N3818    N        0.50655    0.65462    0.25547    1.000
    N3819    N        0.71472    0.65074    0.28118    1.000
    N3820    N        0.66659    0.62321    0.32310    1.000
    Si3821   Si       0.65074    0.62423    0.36271    1.000
    Si3822   Si       0.70989    0.63234    0.32000    1.000
    Si3823   Si       0.71844    0.61847    0.25282    1.000
    Si3824   Si       0.65273    0.60022    0.28944    1.000
    N3825    N        0.51723    0.64582    0.45085    1.000
    Si3826   Si       0.52986    0.61900    0.41970    1.000
    N3827    N        0.58114    0.61806    0.48097    1.000
    N3828    N        0.50824    0.63727    0.38784    1.000
    N3829    N        0.57071    0.61738    0.40352    1.000
    Si3830   Si       0.54489    0.64637    0.48608    1.000
    Si3831   Si       0.59354    0.65547    0.40064    1.000
    Si3832   Si       0.67197    0.65297    0.48890    1.000
    N3833    N        0.62552    0.64856    0.43185    1.000
    Si3834   Si       0.72814    0.64644    0.38765    1.000
    N3835    N        0.66281    0.60954    0.48400    1.000
    Si3836   Si       0.62181    0.61388    0.46169    1.000
    N3837    N        0.68433    0.63612    0.38790    1.000
    N3838    N        0.72923    0.59725    0.49322    1.000
    N3839    N        0.50600    0.61881    0.57724    1.000
    Si3840   Si       0.52679    0.64394    0.60675    1.000
    Si3841   Si       0.50121    0.62886    0.53613    1.000
    N3842    N        0.52686    0.60544    0.51001    1.000
    N3843    N        0.56822    0.62492    0.60973    1.000
    N3844    N        0.62892    0.62881    0.55987    1.000
    Si3845   Si       0.65888    0.64377    0.59015    1.000
    N3846    N        0.66303    0.60513    0.61185    1.000
    N3847    N        0.69920    0.65243    0.57906    1.000
    Si3848   Si       0.59639    0.64447    0.63765    1.000
    N3849    N        0.51510    0.64517    0.64956    1.000
    Si3850   Si       0.53983    0.60513    0.73145    1.000
    Si3851   Si       0.51368    0.60257    0.66029    1.000
    Si3852   Si       0.61093    0.63015    0.72666    1.000
    Si3853   Si       0.65979    0.61923    0.65297    1.000
    N3854    N        0.61813    0.61825    0.66609    1.000
    N3855    N        0.68620    0.65309    0.65549    1.000
    N3856    N        0.65469    0.63449    0.72594    1.000
    Si3857   Si       0.59954    0.64142    0.81434    1.000
    N3858    N        0.56421    0.61002    0.82360    1.000
    N3859    N        0.59685    0.64906    0.85985    1.000
    N3860    N        0.53267    0.64177    0.75489    1.000
    N3861    N        0.60044    0.62922    0.77055    1.000
    Si3862   Si       0.56362    0.61710    0.86643    1.000
    Si3863   Si       0.49394    0.64483    0.77251    1.000
    N3864    N        0.49315    0.62929    0.81361    1.000
    N3865    N        0.70433    0.63705    0.77352    1.000
    N3866    N        0.64703    0.63887    0.82316    1.000
    Si3867   Si       0.66212    0.60013    0.84043    1.000
    N3868    N        0.50302    0.60271    0.87544    1.000
    N3869    N        0.59339    0.60877    0.94694    1.000
    Si3870   Si       0.55805    0.63505    0.94435    1.000
    N3871    N        0.54888    0.64339    0.89795    1.000
    Si3872   Si       0.59627    0.61387    0.98964    1.000
    Si3873   Si       0.50395    0.64302    0.89274    1.000
    N3874    N        0.55932    0.63645    0.99080    1.000
    N3875    N        0.52668    0.60333    0.94241    1.000
    Si3876   Si       0.64112    0.65408    0.87118    1.000
    N3877    N        0.68213    0.64143    0.94301    1.000
    N3878    N        0.66932    0.61703    0.87818    1.000
    Si3879   Si       0.69111    0.60664    0.91417    1.000
    N3880    N        0.73658    0.60273    0.91021    1.000
    N3881    N        0.62710    0.64510    0.99019    1.000
    Si3882   Si       0.51288    0.69443    0.03878    1.000
    N3883    N        0.58936    0.68203    0.03140    1.000
    N3884    N        0.57589    0.67975    0.10824    1.000
    Si3885   Si       0.58004    0.70051    0.06942    1.000
    N3886    N        0.52678    0.70147    0.99921    1.000
    N3887    N        0.65191    0.70791    0.01836    1.000
    N3888    N        0.70465    0.70059    0.06803    1.000
    Si3889   Si       0.68447    0.66677    0.08306    1.000
    Si3890   Si       0.63031    0.67016    0.02513    1.000
    Si3891   Si       0.69612    0.70763    0.02532    1.000
    N3892    N        0.66090    0.68643    0.11560    1.000
    N3893    N        0.71470    0.67335    0.00215    1.000
    Si3894   Si       0.57291    0.70870    0.14033    1.000
    N3895    N        0.55343    0.69670    0.17703    1.000
    Si3896   Si       0.55914    0.65404    0.18855    1.000
    Si3897   Si       0.68060    0.66063    0.14408    1.000
    N3898    N        0.69344    0.68002    0.18073    1.000
    Si3899   Si       0.73177    0.66409    0.19529    1.000
    N3900    N        0.56266    0.68416    0.29143    1.000
    N3901    N        0.51867    0.69638    0.34845    1.000
    Si3902   Si       0.53011    0.70687    0.30745    1.000
    N3903    N        0.60392    0.71618    0.34371    1.000
    Si3904   Si       0.72089    0.69064    0.26500    1.000
    Si3905   Si       0.64261    0.69556    0.35506    1.000
    N3906    N        0.68181    0.69548    0.33864    1.000
    Si3907   Si       0.72378    0.70053    0.33675    1.000
    N3908    N        0.73650    0.65879    0.34320    1.000
    Si3909   Si       0.64355    0.71237    0.25196    1.000
    N3910    N        0.68669    0.71100    0.24872    1.000
    N3911    N        0.62314    0.65720    0.36710    1.000
    N3912    N        0.73690    0.71648    0.29803    1.000
    N3913    N        0.63388    0.67092    0.25303    1.000
    Si3914   Si       0.59833    0.69651    0.49274    1.000
    Si3915   Si       0.54500    0.70420    0.43802    1.000
    N3916    N        0.50311    0.70000    0.41908    1.000
    Si3917   Si       0.52378    0.67900    0.38671    1.000
    N3918    N        0.56536    0.68259    0.47043    1.000
    N3919    N        0.56508    0.69104    0.40113    1.000
    N3920    N        0.68796    0.66720    0.45019    1.000
    Si3921   Si       0.72885    0.68491    0.44880    1.000
    Si3922   Si       0.66190    0.66584    0.41542    1.000
    N3923    N        0.65320    0.70545    0.39926    1.000
    Si3924   Si       0.54816    0.69182    0.55164    1.000
    N3925    N        0.58739    0.68533    0.53522    1.000
    N3926    N        0.54038    0.68280    0.59362    1.000
    N3927    N        0.52289    0.66660    0.52511    1.000
    Si3928   Si       0.56198    0.70755    0.62081    1.000
    N3929    N        0.65293    0.69037    0.56425    1.000
    Si3930   Si       0.69545    0.68650    0.55219    1.000
    Si3931   Si       0.63529    0.70428    0.60265    1.000
    Si3932   Si       0.62378    0.66667    0.54266    1.000
    N3933    N        0.70425    0.66348    0.51480    1.000
    N3934    N        0.63118    0.66266    0.61932    1.000
    N3935    N        0.63586    0.67339    0.50009    1.000
    N3936    N        0.53231    0.70681    0.69557    1.000
    N3937    N        0.57735    0.68257    0.65370    1.000
    Si3938   Si       0.50158    0.67957    0.67601    1.000
    Si3939   Si       0.57419    0.69862    0.69699    1.000
    N3940    N        0.58746    0.66526    0.71909    1.000
    Si3941   Si       0.68447    0.69548    0.66188    1.000
    N3942    N        0.71582    0.68649    0.73661    1.000
    Si3943   Si       0.67111    0.67347    0.73402    1.000
    N3944    N        0.66107    0.70083    0.69867    1.000
    N3945    N        0.72064    0.71618    0.67313    1.000
    N3946    N        0.66698    0.71832    0.62918    1.000
    N3947    N        0.58230    0.67811    0.80160    1.000
    N3948    N        0.49837    0.67501    0.86202    1.000
    Si3949   Si       0.52585    0.70702    0.85687    1.000
    Si3950   Si       0.56906    0.66617    0.75973    1.000
    N3951    N        0.55394    0.70811    0.75342    1.000
    Si3952   Si       0.56648    0.72041    0.79416    1.000
    N3953    N        0.65656    0.68620    0.77121    1.000
    N3954    N        0.70624    0.68156    0.82188    1.000
    Si3955   Si       0.68940    0.71229    0.84588    1.000
    Si3956   Si       0.67619    0.65921    0.79802    1.000
    N3957    N        0.57354    0.67941    0.94698    1.000
    Si3958   Si       0.58267    0.67170    0.89807    1.000
    N3959    N        0.56488    0.70874    0.87877    1.000
    Si3960   Si       0.56488    0.68134    0.99383    1.000
    N3961    N        0.62357    0.66160    0.91086    1.000
    Si3962   Si       0.64243    0.65811    0.95041    1.000
    Si3963   Si       0.67113    0.70971    0.91535    1.000
    N3964    N        0.71023    0.70740    0.93576    1.000
    Si3965   Si       0.71206    0.67057    0.95916    1.000
    N3966    N        0.64986    0.70203    0.95200    1.000
    N3967    N        0.67007    0.68831    0.87681    1.000
    Si3968   Si       0.52049    0.73926    0.09935    1.000
    N3969    N        0.61200    0.72852    0.07824    1.000
    Si3970   Si       0.61079    0.77015    0.06626    1.000
    N3971    N        0.54138    0.71727    0.06504    1.000
    N3972    N        0.70579    0.74713    0.01383    1.000
    N3973    N        0.66291    0.75952    0.11065    1.000
    N3974    N        0.72680    0.76260    0.07974    1.000
    Si3975   Si       0.63851    0.72470    0.11388    1.000
    Si3976   Si       0.70589    0.75841    0.11640    1.000
    N3977    N        0.55241    0.74448    0.12757    1.000
    Si3978   Si       0.54200    0.73641    0.19668    1.000
    N3979    N        0.57811    0.76165    0.19862    1.000
    N3980    N        0.52517    0.74086    0.23705    1.000
    N3981    N        0.50012    0.74376    0.17909    1.000
    N3982    N        0.61322    0.72439    0.14748    1.000
    Si3983   Si       0.68301    0.71504    0.20505    1.000
    N3984    N        0.70470    0.74784    0.18936    1.000
    Si3985   Si       0.61760    0.74905    0.18250    1.000
    N3986    N        0.73490    0.72808    0.13171    1.000
    N3987    N        0.63945    0.72429    0.21073    1.000
    N3988    N        0.55291    0.74423    0.30048    1.000
    Si3989   Si       0.53005    0.76725    0.26929    1.000
    N3990    N        0.55342    0.75714    0.36886    1.000
    Si3991   Si       0.59061    0.71645    0.30197    1.000
    N3992    N        0.62502    0.73480    0.28287    1.000
    Si3993   Si       0.58720    0.76330    0.45108    1.000
    Si3994   Si       0.58237    0.72431    0.38077    1.000
    N3995    N        0.60374    0.74631    0.41496    1.000
    N3996    N        0.54607    0.74598    0.44806    1.000
    N3997    N        0.60529    0.73980    0.48533    1.000
    N3998    N        0.49586    0.76842    0.40797    1.000
    Si3999   Si       0.51035    0.76943    0.44922    1.000
    Si4000   Si       0.64706    0.74688    0.40847    1.000
    N4001    N        0.65201    0.76936    0.37075    1.000
    Si4002   Si       0.71483    0.76889    0.44399    1.000
    N4003    N        0.72449    0.72794    0.45973    1.000
    N4004    N        0.66903    0.76273    0.44004    1.000
    N4005    N        0.54494    0.73653    0.55553    1.000
    Si4006   Si       0.57999    0.75300    0.57349    1.000
    Si4007   Si       0.50176    0.74611    0.55758    1.000
    N4008    N        0.59715    0.72210    0.59919    1.000
    N4009    N        0.61804    0.76293    0.55325    1.000
    N4010    N        0.67404    0.74034    0.51499    1.000
    Si4011   Si       0.63344    0.75622    0.51425    1.000
    Si4012   Si       0.70114    0.75715    0.54325    1.000
    N4013    N        0.71834    0.72320    0.56527    1.000
    Si4014   Si       0.53023    0.73981    0.73158    1.000
    N4015    N        0.54289    0.74501    0.63182    1.000
    N4016    N        0.59644    0.73539    0.70407    1.000
    Si4017   Si       0.50009    0.74295    0.63810    1.000
    N4018    N        0.72549    0.75753    0.72819    1.000
    N4019    N        0.71104    0.77233    0.63333    1.000
    Si4020   Si       0.73495    0.71771    0.71363    1.000
    Si4021   Si       0.64167    0.73959    0.70897    1.000
    N4022    N        0.65548    0.76855    0.67833    1.000
    Si4023   Si       0.67123    0.75911    0.63898    1.000
    N4024    N        0.60476    0.73792    0.79289    1.000
    N4025    N        0.52949    0.76345    0.77271    1.000
    Si4026   Si       0.50076    0.72546    0.78508    1.000
    N4027    N        0.60525    0.76681    0.86049    1.000
    N4028    N        0.50473    0.74188    0.86975    1.000
    N4029    N        0.53170    0.71828    0.81687    1.000
    N4030    N        0.66822    0.73659    0.81741    1.000
    N4031    N        0.72291    0.73699    0.85924    1.000
    Si4032   Si       0.64331    0.72507    0.78131    1.000
    N4033    N        0.65837    0.74893    0.74787    1.000
    N4034    N        0.59108    0.73547    0.98604    1.000
    Si4035   Si       0.49938    0.74537    0.91209    1.000
    Si4036   Si       0.57370    0.72341    0.94633    1.000
    N4037    N        0.59711    0.74623    0.92049    1.000
    Si4038   Si       0.51569    0.73795    0.98156    1.000
    Si4039   Si       0.56924    0.75468    0.88773    1.000
    N4040    N        0.53213    0.73634    0.93992    1.000
    N4041    N        0.65188    0.76797    0.97602    1.000
    Si4042   Si       0.70452    0.76819    0.88655    1.000
    N4043    N        0.66740    0.74986    0.89816    1.000
    Si4044   Si       0.62953    0.76816    0.89767    1.000
    Si4045   Si       0.63474    0.72786    0.98270    1.000
    N4046    N        0.59813    0.78757    0.10483    1.000
    N4047    N        0.57788    0.78639    0.04039    1.000
    Si4048   Si       0.49927    0.81454    0.07453    1.000
    N4049    N        0.51787    0.78000    0.08740    1.000
    Si4050   Si       0.56707    0.82760    0.05079    1.000
    Si4051   Si       0.55527    0.78784    0.11506    1.000
    Si4052   Si       0.57784    0.77664    0.99901    1.000
    N4053    N        0.64254    0.78836    0.04331    1.000
    N4054    N        0.70612    0.80990    0.03295    1.000
    Si4055   Si       0.73732    0.80100    0.06108    1.000
    Si4056   Si       0.67404    0.78281    0.01219    1.000
    Si4057   Si       0.64378    0.82998    0.05649    1.000
    N4058    N        0.73138    0.82920    0.09418    1.000
    N4059    N        0.65853    0.82538    0.09689    1.000
    N4060    N        0.55114    0.81579    0.14714    1.000
    Si4061   Si       0.58198    0.79680    0.22433    1.000
    N4062    N        0.68641    0.80543    0.21632    1.000
    Si4063   Si       0.65323    0.81549    0.24258    1.000
    Si4064   Si       0.68248    0.78243    0.17876    1.000
    N4065    N        0.61744    0.78813    0.24570    1.000
    Si4066   Si       0.72869    0.80204    0.22717    1.000
    Si4067   Si       0.63421    0.80138    0.12547    1.000
    N4068    N        0.64179    0.78181    0.16736    1.000
    N4069    N        0.71002    0.79132    0.14629    1.000
    N4070    N        0.54113    0.81169    0.34196    1.000
    Si4071   Si       0.50503    0.81522    0.31785    1.000
    N4072    N        0.60500    0.78815    0.31968    1.000
    N4073    N        0.55135    0.80035    0.25412    1.000
    N4074    N        0.49481    0.78583    0.28679    1.000
    Si4075   Si       0.56672    0.77440    0.33132    1.000
    N4076    N        0.71465    0.78338    0.33307    1.000
    Si4077   Si       0.62813    0.80186    0.35351    1.000
    N4078    N        0.66692    0.80168    0.28263    1.000
    Si4079   Si       0.70689    0.80565    0.29654    1.000
    N4080    N        0.72933    0.78323    0.26690    1.000
    N4081    N        0.66502    0.82835    0.35372    1.000
    Si4082   Si       0.68877    0.79402    0.36581    1.000
    Si4083   Si       0.63129    0.77757    0.28664    1.000
    Si4084   Si       0.51650    0.79010    0.37721    1.000
    N4085    N        0.52310    0.80215    0.47289    1.000
    Si4086   Si       0.54741    0.82531    0.44406    1.000
    N4087    N        0.58940    0.80881    0.45100    1.000
    N4088    N        0.53512    0.82133    0.40340    1.000
    N4089    N        0.60254    0.82392    0.38092    1.000
    Si4090   Si       0.59986    0.82219    0.49407    1.000
    Si4091   Si       0.61485    0.83567    0.42141    1.000
    Si4092   Si       0.66351    0.79940    0.46392    1.000
    N4093    N        0.71079    0.79074    0.40153    1.000
    N4094    N        0.70584    0.80388    0.47038    1.000
    N4095    N        0.63761    0.79904    0.49839    1.000
    Si4096   Si       0.52776    0.80844    0.51675    1.000
    N4097    N        0.56977    0.81289    0.52453    1.000
    N4098    N        0.57195    0.79071    0.59020    1.000
    Si4099   Si       0.57675    0.82517    0.56607    1.000
    N4100    N        0.49851    0.78219    0.53390    1.000
    Si4101   Si       0.63979    0.79385    0.57703    1.000
    N4102    N        0.68116    0.78862    0.56616    1.000
    Si4103   Si       0.73054    0.81435    0.50439    1.000
    Si4104   Si       0.70278    0.82590    0.57356    1.000
    N4105    N        0.73342    0.82774    0.60452    1.000
    N4106    N        0.62170    0.83065    0.56631    1.000
    N4107    N        0.64188    0.78417    0.61939    1.000
    N4108    N        0.73848    0.77584    0.52662    1.000
    N4109    N        0.54024    0.77729    0.70926    1.000
    N4110    N        0.60774    0.80049    0.73796    1.000
    Si4111   Si       0.51472    0.80223    0.68036    1.000
    N4112    N        0.53363    0.81791    0.64383    1.000
    N4113    N        0.59062    0.78778    0.66351    1.000
    Si4114   Si       0.56134    0.78422    0.63270    1.000
    Si4115   Si       0.58493    0.77888    0.70804    1.000
    N4116    N        0.49837    0.83225    0.70629    1.000
    N4117    N        0.67791    0.81612    0.74313    1.000
    Si4118   Si       0.62946    0.79919    0.65894    1.000
    Si4119   Si       0.73498    0.80954    0.64636    1.000
    N4120    N        0.57811    0.80327    0.80835    1.000
    Si4121   Si       0.53675    0.80015    0.79175    1.000
    N4122    N        0.51390    0.80103    0.82692    1.000
    Si4123   Si       0.61018    0.77512    0.81690    1.000
    Si4124   Si       0.67826    0.77983    0.81951    1.000
    N4125    N        0.64389    0.79932    0.80094    1.000
    N4126    N        0.69083    0.79740    0.85654    1.000
    Si4127   Si       0.63761    0.82236    0.76269    1.000
    N4128    N        0.70958    0.78596    0.79213    1.000
    Si4129   Si       0.71703    0.83191    0.86411    1.000
    Si4130   Si       0.69297    0.77577    0.75161    1.000
    Si4131   Si       0.52830    0.79189    0.94381    1.000
    N4132    N        0.55056    0.79005    0.90603    1.000
    N4133    N        0.59604    0.81005    0.97650    1.000
    N4134    N        0.53554    0.77718    0.98252    1.000
    N4135    N        0.63576    0.80630    0.91886    1.000
    Si4136   Si       0.63801    0.80615    0.96208    1.000
    N4137    N        0.72942    0.77537    0.91843    1.000
    N4138    N        0.60421    0.84864    0.06122    1.000
    Si4139   Si       0.50423    0.84816    0.01485    1.000
    Si4140   Si       0.52669    0.88075    0.08117    1.000
    N4141    N        0.54735    0.84132    0.01462    1.000
    N4142    N        0.53514    0.83984    0.08069    1.000
    N4143    N        0.50225    0.88054    0.04380    1.000
    Si4144   Si       0.60158    0.88906    0.07409    1.000
    N4145    N        0.50686    0.89296    0.11713    1.000
    N4146    N        0.67468    0.86230    0.04943    1.000
    Si4147   Si       0.69359    0.84878    0.08913    1.000
    N4148    N        0.68643    0.88396    0.11325    1.000
    Si4149   Si       0.69464    0.84665    0.01270    1.000
    N4150    N        0.49523    0.83866    0.23447    1.000
    Si4151   Si       0.51555    0.87531    0.15746    1.000
    Si4152   Si       0.58084    0.84426    0.16248    1.000
    N4153    N        0.55846    0.88362    0.15972    1.000
    Si4154   Si       0.59607    0.86658    0.22744    1.000
    N4155    N        0.58546    0.83397    0.20334    1.000
    N4156    N        0.61797    0.84313    0.14129    1.000
    Si4157   Si       0.64641    0.87365    0.13309    1.000
    N4158    N        0.66563    0.88492    0.17161    1.000
    Si4159   Si       0.70737    0.88749    0.15390    1.000
    N4160    N        0.73595    0.85486    0.15960    1.000
    N4161    N        0.63350    0.85427    0.24655    1.000
    N4162    N        0.51270    0.85178    0.29613    1.000
    Si4163   Si       0.53261    0.84151    0.25745    1.000
    N4164    N        0.55985    0.87343    0.25274    1.000
    N4165    N        0.55984    0.87834    0.36382    1.000
    Si4166   Si       0.56096    0.83631    0.37281    1.000
    N4167    N        0.72554    0.84506    0.29503    1.000
    Si4168   Si       0.66853    0.87041    0.35464    1.000
    Si4169   Si       0.71082    0.88317    0.30939    1.000
    N4170    N        0.70995    0.88444    0.35377    1.000
    N4171    N        0.66596    0.88763    0.31039    1.000
    Si4172   Si       0.64476    0.88843    0.27195    1.000
    N4173    N        0.54123    0.86428    0.46155    1.000
    Si4174   Si       0.50423    0.86823    0.48541    1.000
    N4175    N        0.59678    0.87490    0.41981    1.000
    N4176    N        0.60550    0.86494    0.48439    1.000
    Si4177   Si       0.57734    0.88591    0.45694    1.000
    N4178    N        0.65877    0.83395    0.43630    1.000
    Si4179   Si       0.70046    0.85309    0.43957    1.000
    N4180    N        0.71098    0.87133    0.47947    1.000
    N4181    N        0.51108    0.85110    0.52550    1.000
    Si4182   Si       0.52074    0.87814    0.55711    1.000
    N4183    N        0.54750    0.85358    0.58309    1.000
    N4184    N        0.67689    0.85817    0.59157    1.000
    Si4185   Si       0.64151    0.86982    0.56791    1.000
    Si4186   Si       0.70009    0.87965    0.52146    1.000
    N4187    N        0.65759    0.88091    0.52964    1.000
    N4188    N        0.71277    0.83887    0.53576    1.000
    Si4189   Si       0.54556    0.85710    0.62707    1.000
    N4190    N        0.58587    0.87332    0.63971    1.000
    Si4191   Si       0.60006    0.86204    0.68042    1.000
    Si4192   Si       0.53227    0.85054    0.72751    1.000
    N4193    N        0.56751    0.84774    0.70411    1.000
    N4194    N        0.53626    0.89341    0.74394    1.000
    N4195    N        0.51873    0.89068    0.63548    1.000
    Si4196   Si       0.64549    0.89042    0.73432    1.000
    Si4197   Si       0.70796    0.84622    0.73914    1.000
    Si4198   Si       0.67252    0.86564    0.67632    1.000
    Si4199   Si       0.70439    0.86717    0.62460    1.000
    N4200    N        0.70788    0.84231    0.66205    1.000
    N4201    N        0.68655    0.88023    0.71724    1.000
    N4202    N        0.63713    0.83967    0.67243    1.000
    N4203    N        0.57514    0.87504    0.80853    1.000
    N4204    N        0.50596    0.87097    0.81848    1.000
    Si4205   Si       0.53783    0.87784    0.78670    1.000
    N4206    N        0.55392    0.84070    0.86317    1.000
    Si4207   Si       0.51356    0.83885    0.84768    1.000
    Si4208   Si       0.58387    0.83830    0.83114    1.000
    N4209    N        0.53466    0.83652    0.76916    1.000
    Si4210   Si       0.61274    0.89201    0.79442    1.000
    Si4211   Si       0.72268    0.88598    0.81385    1.000
    N4212    N        0.72670    0.86132    0.77730    1.000
    N4213    N        0.69813    0.86365    0.84019    1.000
    Si4214   Si       0.65731    0.86807    0.85031    1.000
    N4215    N        0.63161    0.86543    0.76633    1.000
    N4216    N        0.61991    0.83935    0.85444    1.000
    Si4217   Si       0.56906    0.84545    0.97818    1.000
    N4218    N        0.59178    0.85788    0.91753    1.000
    N4219    N        0.58408    0.88724    0.98044    1.000
    Si4220   Si       0.55508    0.83558    0.90510    1.000
    N4221    N        0.53866    0.83518    0.94539    1.000
    N4222    N        0.65810    0.87148    0.89565    1.000
    Si4223   Si       0.62567    0.84073    0.89825    1.000
    N4224    N        0.72446    0.84287    0.90399    1.000
    Si4225   Si       0.73682    0.88290    0.91566    1.000
    N4226    N        0.66516    0.82693    0.98756    1.000
    N4227    N        0.72538    0.87354    0.99804    1.000
    N4228    N        0.56266    0.90525    0.07685    1.000
    N4229    N        0.50484    0.94026    0.06879    1.000
    Si4230   Si       0.58983    0.91836    0.00897    1.000
    N4231    N        0.55680    0.94412    0.02018    1.000
    Si4232   Si       0.54702    0.94414    0.06262    1.000
    Si4233   Si       0.49212    0.93486    0.11007    1.000
    N4234    N        0.61969    0.91089    0.04039    1.000
    N4235    N        0.62244    0.90440    0.11095    1.000
    Si4236   Si       0.69419    0.92595    0.09745    1.000
    N4237    N        0.68730    0.93077    0.05570    1.000
    Si4238   Si       0.66069    0.90388    0.03639    1.000
    N4239    N        0.73594    0.92702    0.10121    1.000
    Si4240   Si       0.62531    0.94728    0.11844    1.000
    Si4241   Si       0.57982    0.91981    0.17585    1.000
    N4242    N        0.60701    0.90262    0.20615    1.000
    Si4243   Si       0.51033    0.94574    0.18129    1.000
    N4244    N        0.55050    0.94346    0.19676    1.000
    N4245    N        0.49556    0.90490    0.18169    1.000
    N4246    N        0.72017    0.92609    0.16927    1.000
    N4247    N        0.66860    0.90900    0.24344    1.000
    Si4248   Si       0.65079    0.90858    0.20304    1.000
    N4249    N        0.65964    0.95031    0.19164    1.000
    N4250    N        0.53766    0.91474    0.31337    1.000
    Si4251   Si       0.56736    0.90634    0.28213    1.000
    Si4252   Si       0.52684    0.90524    0.35568    1.000
    N4253    N        0.60966    0.90331    0.29102    1.000
    Si4254   Si       0.49799    0.89457    0.30190    1.000
    N4255    N        0.55898    0.94746    0.26481    1.000
    Si4256   Si       0.63269    0.91648    0.32569    1.000
    N4257    N        0.72240    0.91710    0.28721    1.000
    Si4258   Si       0.69669    0.93891    0.25914    1.000
    N4259    N        0.63195    0.89324    0.36296    1.000
    N4260    N        0.58876    0.93997    0.38948    1.000
    N4261    N        0.57078    0.92828    0.45228    1.000
    N4262    N        0.52071    0.92765    0.39400    1.000
    Si4263   Si       0.55293    0.94668    0.41620    1.000
    Si4264   Si       0.59497    0.89760    0.38339    1.000
    N4265    N        0.66237    0.91784    0.47362    1.000
    Si4266   Si       0.70472    0.91647    0.45792    1.000
    N4267    N        0.71146    0.94858    0.38461    1.000
    N4268    N        0.70091    0.89366    0.42002    1.000
    Si4269   Si       0.72429    0.90779    0.38765    1.000
    N4270    N        0.54698    0.91364    0.54440    1.000
    Si4271   Si       0.58816    0.92439    0.54884    1.000
    Si4272   Si       0.52730    0.93979    0.51469    1.000
    N4273    N        0.60705    0.92799    0.50946    1.000
    N4274    N        0.55816    0.93810    0.61581    1.000
    Si4275   Si       0.59218    0.91037    0.61586    1.000
    N4276    N        0.60793    0.89883    0.57734    1.000
    N4277    N        0.50069    0.90918    0.49536    1.000
    N4278    N        0.71710    0.91955    0.52943    1.000
    Si4279   Si       0.63258    0.89494    0.49786    1.000
    N4280    N        0.66738    0.94476    0.58547    1.000
    N4281    N        0.55725    0.92828    0.68390    1.000
    Si4282   Si       0.53384    0.92889    0.71930    1.000
    Si4283   Si       0.60085    0.93054    0.68080    1.000
    N4284    N        0.49527    0.92705    0.70208    1.000
    Si4285   Si       0.52918    0.93136    0.64888    1.000
    Si4286   Si       0.66340    0.93391    0.62765    1.000
    N4287    N        0.61757    0.89646    0.70106    1.000
    N4288    N        0.67942    0.89708    0.64607    1.000
    N4289    N        0.61893    0.93405    0.64066    1.000
    Si4290   Si       0.69707    0.92416    0.72181    1.000
    N4291    N        0.65955    0.93193    0.74455    1.000
    N4292    N        0.60044    0.92987    0.77772    1.000
    Si4293   Si       0.50002    0.91496    0.82756    1.000
    N4294    N        0.53284    0.92684    0.80196    1.000
    N4295    N        0.50700    0.91603    0.86950    1.000
    Si4296   Si       0.56375    0.95016    0.78204    1.000
    N4297    N        0.61217    0.94996    0.86357    1.000
    N4298    N        0.71450    0.92837    0.81939    1.000
    Si4299   Si       0.64986    0.93905    0.84457    1.000
    N4300    N        0.63925    0.89936    0.82810    1.000
    Si4301   Si       0.71971    0.93690    0.86235    1.000
    N4302    N        0.72904    0.92783    0.75161    1.000
    N4303    N        0.60889    0.95293    0.98770    1.000
    N4304    N        0.56425    0.92318    0.92209    1.000
    Si4305   Si       0.52383    0.93605    0.90612    1.000
    N4306    N        0.49879    0.90219    0.92988    1.000
    Si4307   Si       0.59431    0.89556    0.93862    1.000
    N4308    N        0.49920    0.93036    0.99116    1.000
    N4309    N        0.63245    0.91747    0.93590    1.000
    N4310    N        0.72248    0.94984    0.99180    1.000
    Si4311   Si       0.64534    0.94130    0.96985    1.000
    N4312    N        0.67978    0.93264    0.87811    1.000
    Si4313   Si       0.67033    0.90972    0.91274    1.000
    Si4314   Si       0.70822    0.91002    0.98015    1.000
    N4315    N        0.66745    0.91059    0.99363    1.000
    N4316    N        0.70508    0.90449    0.93666    1.000
    N4317    N        0.55130    0.98567    0.07344    1.000
    N4318    N        0.59411    0.00447    0.03077    1.000
    Si4319   Si       0.57461    0.97807    0.00022    1.000
    Si4320   Si       0.51146    0.00902    0.06422    1.000
    Si4321   Si       0.58895    0.00739    0.07413    1.000
    N4322    N        0.62192    0.98307    0.09190    1.000
    N4323    N        0.70577    0.99122    0.07715    1.000
    Si4324   Si       0.70378    0.96588    0.03519    1.000
    N4325    N        0.66764    0.97680    0.01210    1.000
    Si4326   Si       0.66316    0.00051    0.09019    1.000
    Si4327   Si       0.56394    0.96953    0.22767    1.000
    N4328    N        0.60636    0.98673    0.22493    1.000
    N4329    N        0.50936    0.96203    0.13919    1.000
    Si4330   Si       0.50189    0.00581    0.13512    1.000
    N4331    N        0.60413    0.95268    0.15574    1.000
    N4332    N        0.53878    0.00742    0.23097    1.000
    N4333    N        0.70975    0.99421    0.15905    1.000
    N4334    N        0.72850    0.95139    0.23205    1.000
    Si4335   Si       0.62527    0.97537    0.18599    1.000
    Si4336   Si       0.69091    0.95496    0.16186    1.000
    N4337    N        0.66949    0.95022    0.12228    1.000
    N4338    N        0.54811    0.98977    0.32548    1.000
    Si4339   Si       0.53530    0.95816    0.30087    1.000
    N4340    N        0.49311    0.95933    0.30063    1.000
    Si4341   Si       0.65205    0.98497    0.31232    1.000
    N4342    N        0.69015    0.99549    0.33654    1.000
    N4343    N        0.63166    0.95713    0.33734    1.000
    N4344    N        0.67149    0.97033    0.27576    1.000
    N4345    N        0.74199    0.98223    0.29075    1.000
    Si4346   Si       0.59246    0.95700    0.47973    1.000
    N4347    N        0.49721    0.95802    0.45231    1.000
    Si4348   Si       0.51277    0.99784    0.44876    1.000
    N4349    N        0.54544    0.98816    0.42164    1.000
    Si4350   Si       0.66429    0.96241    0.48337    1.000
    Si4351   Si       0.61527    0.97179    0.37414    1.000
    N4352    N        0.62909    0.97839    0.46456    1.000
    Si4353   Si       0.68703    0.98679    0.37759    1.000
    Si4354   Si       0.73551    0.99087    0.46709    1.000
    N4355    N        0.64837    0.98645    0.39873    1.000
    N4356    N        0.70157    0.96327    0.46242    1.000
    N4357    N        0.71610    0.00913    0.40210    1.000
    Si4358   Si       0.63550    0.01051    0.43182    1.000
    Si4359   Si       0.56710    0.97451    0.59451    1.000
    N4360    N        0.49791    0.96617    0.53396    1.000
    N4361    N        0.59811    0.96343    0.56611    1.000
    N4362    N        0.52888    0.99668    0.59037    1.000
    N4363    N        0.55907    0.96947    0.50655    1.000
    Si4364   Si       0.50805    0.00407    0.55197    1.000
    Si4365   Si       0.55799    0.01223    0.50971    1.000
    Si4366   Si       0.64171    0.97622    0.56244    1.000
    N4367    N        0.66918    0.97093    0.52647    1.000
    N4368    N        0.72808    0.98253    0.56940    1.000
    Si4369   Si       0.70001    0.95257    0.55434    1.000
    N4370    N        0.59082    0.99704    0.62321    1.000
    Si4371   Si       0.58596    0.98578    0.72396    1.000
    N4372    N        0.50168    0.97014    0.64438    1.000
    N4373    N        0.55272    0.96160    0.74205    1.000
    N4374    N        0.60779    0.97198    0.69012    1.000
    N4375    N        0.66637    0.97443    0.64672    1.000
    Si4376   Si       0.62297    0.98207    0.65082    1.000
    Si4377   Si       0.70557    0.97683    0.65940    1.000
    Si4378   Si       0.71150    0.99292    0.73389    1.000
    N4379    N        0.70705    0.96205    0.70133    1.000
    N4380    N        0.73119    0.95267    0.63439    1.000
    N4381    N        0.57574    0.98251    0.81043    1.000
    Si4382   Si       0.61008    0.98478    0.83619    1.000
    N4383    N        0.49250    0.99767    0.86205    1.000
    Si4384   Si       0.53310    0.00463    0.87518    1.000
    N4385    N        0.61616    0.99191    0.75548    1.000
    N4386    N        0.64639    0.97249    0.81233    1.000
    N4387    N        0.70019    0.98460    0.77444    1.000
    Si4388   Si       0.67360    0.00510    0.80295    1.000
    Si4389   Si       0.63494    0.95633    0.77085    1.000
    Si4390   Si       0.72604    0.95229    0.78694    1.000
    N4391    N        0.55038    0.96654    0.88161    1.000
    N4392    N        0.54841    0.00131    0.97275    1.000
    Si4393   Si       0.58874    0.95530    0.90144    1.000
    N4394    N        0.60181    0.99042    0.92605    1.000
    N4395    N        0.49860    0.97076    0.92341    1.000
    N4396    N        0.73709    0.97504    0.87457    1.000
    Si4397   Si       0.69810    0.98602    0.97973    1.000
    Si4398   Si       0.64196    0.00507    0.94065    1.000
    N4399    N        0.66800    0.97134    0.94981    1.000
    N4400    N        0.76878    0.03094    0.06028    1.000
    Si4401   Si       0.81321    0.03502    0.06701    1.000
    N4402    N        0.82088    0.05878    0.02885    1.000
    N4403    N        0.80936    0.05646    0.10375    1.000
    N4404    N        0.86994    0.05286    0.07108    1.000
    Si4405   Si       0.90362    0.03740    0.09479    1.000
    Si4406   Si       0.97578    0.03134    0.06047    1.000
    N4407    N        0.93185    0.02446    0.06207    1.000
    N4408    N        0.98534    0.04285    0.10027    1.000
    N4409    N        0.98765    0.06098    0.03134    1.000
    N4410    N        0.88137    0.06753    0.99777    1.000
    Si4411   Si       0.75204    0.05279    0.21024    1.000
    N4412    N        0.75635    0.04492    0.16748    1.000
    N4413    N        0.79273    0.07017    0.22116    1.000
    Si4414   Si       0.94221    0.06051    0.22794    1.000
    N4415    N        0.87104    0.05464    0.14806    1.000
    Si4416   Si       0.94396    0.01252    0.18480    1.000
    N4417    N        0.90472    0.04169    0.24383    1.000
    N4418    N        0.97283    0.02509    0.22029    1.000
    N4419    N        0.93475    0.05405    0.18250    1.000
    N4420    N        0.84040    0.04726    0.27922    1.000
    Si4421   Si       0.80226    0.05439    0.26124    1.000
    N4422    N        0.75276    0.03677    0.32987    1.000
    Si4423   Si       0.78193    0.01758    0.35383    1.000
    Si4424   Si       0.84717    0.01486    0.30603    1.000
    N4425    N        0.82304    0.01807    0.34041    1.000
    N4426    N        0.79368    0.01133    0.25228    1.000
    Si4427   Si       0.90564    0.03067    0.35150    1.000
    Si4428   Si       0.96384    0.04656    0.30696    1.000
    N4429    N        0.93873    0.06038    0.33918    1.000
    N4430    N        0.89072    0.01860    0.31154    1.000
    Si4431   Si       0.91151    0.01146    0.27436    1.000
    N4432    N        0.95477    0.00944    0.28403    1.000
    N4433    N        0.81317    0.01097    0.47952    1.000
    Si4434   Si       0.83323    0.02866    0.38141    1.000
    Si4435   Si       0.83564    0.04777    0.48876    1.000
    N4436    N        0.79126    0.04315    0.38928    1.000
    N4437    N        0.84880    0.06538    0.44930    1.000
    N4438    N        0.87069    0.05107    0.37031    1.000
    N4439    N        0.97143    0.05627    0.46806    1.000
    N4440    N        0.91060    0.02718    0.43910    1.000
    Si4441   Si       0.95470    0.02108    0.44870    1.000
    Si4442   Si       0.89241    0.06457    0.44683    1.000
    N4443    N        0.77566    0.03307    0.53929    1.000
    N4444    N        0.86515    0.03770    0.52012    1.000
    N4445    N        0.73722    0.04449    0.59937    1.000
    Si4446   Si       0.73591    0.02374    0.56054    1.000
    Si4447   Si       0.94177    0.03997    0.57436    1.000
    N4448    N        0.90347    0.03982    0.59455    1.000
    N4449    N        0.93569    0.04757    0.53211    1.000
    N4450    N        0.96316    0.05949    0.61109    1.000
    Si4451   Si       0.89888    0.06601    0.52125    1.000
    Si4452   Si       0.99127    0.02695    0.60704    1.000
    N4453    N        0.84987    0.02025    0.62741    1.000
    N4454    N        0.79871    0.05702    0.71919    1.000
    Si4455   Si       0.83179    0.05909    0.63817    1.000
    Si4456   Si       0.82927    0.02330    0.71576    1.000
    Si4457   Si       0.75921    0.02831    0.63331    1.000
    N4458    N        0.78970    0.05692    0.64818    1.000
    Si4459   Si       0.76176    0.05128    0.74038    1.000
    N4460    N        0.75059    0.00882    0.74019    1.000
    Si4461   Si       0.89822    0.00869    0.74405    1.000
    N4462    N        0.87091    0.02937    0.71570    1.000
    Si4463   Si       0.95298    0.02633    0.70081    1.000
    Si4464   Si       0.88569    0.05587    0.68664    1.000
    N4465    N        0.92353    0.03894    0.67188    1.000
    N4466    N        0.93455    0.03291    0.73890    1.000
    N4467    N        0.82514    0.05145    0.81370    1.000
    Si4468   Si       0.77937    0.05363    0.81744    1.000
    N4469    N        0.76376    0.01571    0.83085    1.000
    Si4470   Si       0.84048    0.01584    0.79327    1.000
    Si4471   Si       0.85632    0.06586    0.84208    1.000
    N4472    N        0.75970    0.06724    0.78020    1.000
    N4473    N        0.88691    0.03700    0.84521    1.000
    Si4474   Si       0.91290    0.03089    0.81008    1.000
    N4475    N        0.88238    0.01938    0.78315    1.000
    Si4476   Si       0.95327    0.06448    0.76309    1.000
    N4477    N        0.98822    0.06337    0.85122    1.000
    Si4478   Si       0.98754    0.03091    0.82016    1.000
    Si4479   Si       0.83616    0.02729    0.90959    1.000
    N4480    N        0.83405    0.02812    0.95446    1.000
    Si4481   Si       0.74987    0.02273    0.98691    1.000
    N4482    N        0.75777    0.06437    0.98802    1.000
    N4483    N        0.84081    0.06235    0.88328    1.000
    N4484    N        0.97245    0.02789    0.95481    1.000
    Si4485   Si       0.90644    0.01736    0.87894    1.000
    N4486    N        0.90851    0.01991    0.95707    1.000
    N4487    N        0.93438    0.04544    0.89682    1.000
    Si4488   Si       0.86887    0.02913    0.97877    1.000
    Si4489   Si       0.93674    0.04829    0.94023    1.000
    N4490    N        0.77043    0.09920    0.04701    1.000
    N4491    N        0.85623    0.11634    0.04158    1.000
    N4492    N        0.75985    0.09704    0.11252    1.000
    Si4493   Si       0.79072    0.08250    0.01119    1.000
    N4494    N        0.85517    0.11414    0.11528    1.000
    Si4495   Si       0.86198    0.07457    0.03476    1.000
    Si4496   Si       0.75668    0.07050    0.07841    1.000
    Si4497   Si       0.96642    0.08108    0.10836    1.000
    N4498    N        0.96939    0.10755    0.07548    1.000
    Si4499   Si       0.97215    0.10206    0.03033    1.000
    N4500    N        0.93331    0.11884    0.01722    1.000
    N4501    N        0.92467    0.06957    0.11479    1.000
    Si4502   Si       0.83693    0.07721    0.12898    1.000
    Si4503   Si       0.82135    0.10116    0.20332    1.000
    N4504    N        0.80969    0.09241    0.16019    1.000
    Si4505   Si       0.76780    0.08471    0.15401    1.000
    N4506    N        0.86069    0.08728    0.21789    1.000
    N4507    N        0.74143    0.11202    0.17627    1.000
    Si4508   Si       0.88960    0.12051    0.20658    1.000
    N4509    N        0.90802    0.11924    0.16416    1.000
    Si4510   Si       0.90910    0.07479    0.15503    1.000
    N4511    N        0.97872    0.10528    0.14356    1.000
    N4512    N        0.92923    0.10622    0.22581    1.000
    N4513    N        0.77574    0.09664    0.35676    1.000
    Si4514   Si       0.75564    0.07911    0.32117    1.000
    N4515    N        0.78197    0.08407    0.28772    1.000
    Si4516   Si       0.80198    0.12348    0.28304    1.000
    N4517    N        0.83009    0.12566    0.31832    1.000
    Si4518   Si       0.80920    0.12589    0.35730    1.000
    N4519    N        0.89130    0.11081    0.34743    1.000
    N4520    N        0.88613    0.10244    0.27791    1.000
    Si4521   Si       0.93307    0.10546    0.33981    1.000
    Si4522   Si       0.93073    0.10720    0.26876    1.000
    N4523    N        0.95711    0.07259    0.27072    1.000
    Si4524   Si       0.87174    0.06809    0.25549    1.000
    N4525    N        0.94521    0.12630    0.30507    1.000
    N4526    N        0.78720    0.09837    0.43404    1.000
    Si4527   Si       0.77021    0.08013    0.39826    1.000
    Si4528   Si       0.76455    0.11041    0.46852    1.000
    Si4529   Si       0.83056    0.10015    0.43370    1.000
    N4530    N        0.83362    0.11029    0.39105    1.000
    N4531    N        0.90115    0.09022    0.41335    1.000
    Si4532   Si       0.87196    0.09186    0.38070    1.000
    N4533    N        0.98553    0.07450    0.40181    1.000
    N4534    N        0.95333    0.12045    0.44327    1.000
    N4535    N        0.90495    0.08690    0.48341    1.000
    Si4536   Si       0.93151    0.12039    0.48235    1.000
    Si4537   Si       0.92729    0.12414    0.41002    1.000
    Si4538   Si       0.98567    0.09137    0.44443    1.000
    N4539    N        0.76033    0.09689    0.56006    1.000
    N4540    N        0.84690    0.08702    0.60764    1.000
    N4541    N        0.81694    0.08293    0.50895    1.000
    Si4542   Si       0.78022    0.07424    0.53050    1.000
    Si4543   Si       0.82637    0.12500    0.50241    1.000
    N4544    N        0.74784    0.08240    0.49860    1.000
    N4545    N        0.96393    0.10976    0.50904    1.000
    N4546    N        0.89140    0.09713    0.55186    1.000
    Si4547   Si       0.88761    0.08160    0.59148    1.000
    Si4548   Si       0.97254    0.06541    0.51188    1.000
    N4549    N        0.74242    0.10687    0.63322    1.000
    N4550    N        0.84799    0.07551    0.67258    1.000
    Si4551   Si       0.78092    0.07993    0.68632    1.000
    N4552    N        0.78419    0.12252    0.68603    1.000
    Si4553   Si       0.86140    0.11557    0.68584    1.000
    N4554    N        0.96322    0.08769    0.67920    1.000
    Si4555   Si       0.94030    0.06992    0.64511    1.000
    Si4556   Si       0.93919    0.11531    0.70243    1.000
    N4557    N        0.89983    0.09814    0.69616    1.000
    N4558    N        0.91255    0.10003    0.62577    1.000
    N4559    N        0.94900    0.10384    0.74300    1.000
    N4560    N        0.75430    0.08060    0.84202    1.000
    N4561    N        0.81568    0.11848    0.85052    1.000
    N4562    N        0.87362    0.10241    0.82852    1.000
    Si4563   Si       0.91686    0.10568    0.82570    1.000
    N4564    N        0.93243    0.10855    0.86776    1.000
    N4565    N        0.92979    0.07018    0.80115    1.000
    Si4566   Si       0.79374    0.11721    0.94557    1.000
    N4567    N        0.80869    0.11267    0.98569    1.000
    N4568    N        0.78043    0.08913    0.91244    1.000
    Si4569   Si       0.81683    0.09808    0.88951    1.000
    Si4570   Si       0.74428    0.08587    0.88678    1.000
    N4571    N        0.82994    0.12580    0.92083    1.000
    N4572    N        0.93071    0.08759    0.95672    1.000
    Si4573   Si       0.96582    0.11285    0.95073    1.000
    N4574    N        0.99028    0.10758    0.98669    1.000
    N4575    N        0.98254    0.09493    0.91437    1.000
    Si4576   Si       0.90473    0.10322    0.98712    1.000
    Si4577   Si       0.95886    0.07686    0.88031    1.000
    N4578    N        0.76900    0.17235    0.03787    1.000
    N4579    N        0.83165    0.17224    0.08296    1.000
    N4580    N        0.83655    0.17624    0.01648    1.000
    Si4581   Si       0.74644    0.13534    0.03965    1.000
    Si4582   Si       0.86059    0.13833    0.07974    1.000
    Si4583   Si       0.84181    0.13493    0.00379    1.000
    N4584    N        0.96262    0.17368    0.05721    1.000
    Si4585   Si       0.92472    0.15638    0.03696    1.000
    N4586    N        0.90172    0.15130    0.07428    1.000
    Si4587   Si       0.91686    0.17379    0.10948    1.000
    Si4588   Si       0.98034    0.14805    0.08708    1.000
    Si4589   Si       0.83908    0.16087    0.22266    1.000
    Si4590   Si       0.77534    0.16111    0.23899    1.000
    N4591    N        0.84745    0.13892    0.18438    1.000
    N4592    N        0.81153    0.13155    0.23817    1.000
    N4593    N        0.77040    0.17856    0.19977    1.000
    N4594    N        0.74294    0.16296    0.13511    1.000
    N4595    N        0.88001    0.15680    0.23640    1.000
    Si4596   Si       0.94945    0.13264    0.16205    1.000
    N4597    N        0.95733    0.16078    0.12434    1.000
    Si4598   Si       0.86980    0.13798    0.14832    1.000
    N4599    N        0.87888    0.17633    0.13189    1.000
    N4600    N        0.96134    0.16509    0.18943    1.000
    N4601    N        0.78335    0.16381    0.28217    1.000
    Si4602   Si       0.74767    0.17192    0.36801    1.000
    N4603    N        0.79124    0.16496    0.36899    1.000
    N4604    N        0.88299    0.16915    0.30794    1.000
    Si4605   Si       0.96809    0.16301    0.29946    1.000
    Si4606   Si       0.95105    0.17161    0.36864    1.000
    N4607    N        0.94015    0.17754    0.26687    1.000
    Si4608   Si       0.89698    0.18282    0.26835    1.000
    N4609    N        0.97812    0.18454    0.33778    1.000
    Si4610   Si       0.87235    0.12785    0.31146    1.000
    Si4611   Si       0.81562    0.17220    0.46486    1.000
    N4612    N        0.78766    0.14322    0.49024    1.000
    N4613    N        0.84084    0.13329    0.45998    1.000
    N4614    N        0.90060    0.15709    0.41825    1.000
    N4615    N        0.90571    0.15555    0.48551    1.000
    Si4616   Si       0.87777    0.15676    0.45499    1.000
    N4617    N        0.95282    0.12644    0.37450    1.000
    N4618    N        0.85096    0.15067    0.52577    1.000
    Si4619   Si       0.76724    0.16514    0.52197    1.000
    N4620    N        0.79511    0.17183    0.55434    1.000
    N4621    N        0.79925    0.14087    0.61420    1.000
    Si4622   Si       0.77806    0.17726    0.59423    1.000
    Si4623   Si       0.83885    0.12957    0.61630    1.000
    N4624    N        0.87168    0.14645    0.59175    1.000
    N4625    N        0.97775    0.14952    0.56668    1.000
    Si4626   Si       0.88624    0.14212    0.55152    1.000
    N4627    N        0.91669    0.17215    0.54891    1.000
    Si4628   Si       0.94761    0.18009    0.57751    1.000
    Si4629   Si       0.98049    0.14636    0.52409    1.000
    N4630    N        0.96444    0.18387    0.50461    1.000
    N4631    N        0.93466    0.16923    0.61831    1.000
    Si4632   Si       0.91959    0.19051    0.50867    1.000
    N4633    N        0.75446    0.17708    0.63962    1.000
    Si4634   Si       0.80539    0.15410    0.70647    1.000
    N4635    N        0.84724    0.14504    0.71250    1.000
    Si4636   Si       0.76822    0.13689    0.64574    1.000
    N4637    N        0.81159    0.18385    0.67540    1.000
    Si4638   Si       0.85337    0.18246    0.66780    1.000
    N4639    N        0.86326    0.14233    0.65171    1.000
    N4640    N        0.79205    0.15428    0.74675    1.000
    Si4641   Si       0.86685    0.16215    0.74657    1.000
    Si4642   Si       0.96753    0.16759    0.64926    1.000
    N4643    N        0.94325    0.15354    0.68244    1.000
    N4644    N        0.91128    0.16213    0.74271    1.000
    Si4645   Si       0.90002    0.14316    0.62601    1.000
    Si4646   Si       0.75650    0.16007    0.77186    1.000
    Si4647   Si       0.78328    0.14538    0.83824    1.000
    N4648    N        0.75556    0.13662    0.80717    1.000
    Si4649   Si       0.84885    0.13930    0.82373    1.000
    N4650    N        0.81394    0.17261    0.82121    1.000
    N4651    N        0.84968    0.14311    0.78020    1.000
    Si4652   Si       0.81323    0.18028    0.77757    1.000
    N4653    N        0.77402    0.17526    0.87199    1.000
    N4654    N        0.93381    0.13929    0.80496    1.000
    Si4655   Si       0.94517    0.14196    0.76209    1.000
    N4656    N        0.87967    0.17034    0.83567    1.000
    Si4657   Si       0.92245    0.17458    0.82337    1.000
    N4658    N        0.93854    0.17321    0.86445    1.000
    N4659    N        0.98439    0.16025    0.75219    1.000
    N4660    N        0.76446    0.14882    0.94477    1.000
    Si4661   Si       0.86117    0.14928    0.93826    1.000
    N4662    N        0.87459    0.13272    0.97551    1.000
    N4663    N        0.88933    0.15447    0.90541    1.000
    N4664    N        0.95169    0.14933    0.93239    1.000
    Si4665   Si       0.93027    0.14288    0.89496    1.000
    N4666    N        0.77550    0.20838    0.08764    1.000
    N4667    N        0.81484    0.23308    0.04865    1.000
    N4668    N        0.85848    0.23727    0.11001    1.000
    Si4669   Si       0.84155    0.19784    0.11875    1.000
    Si4670   Si       0.80809    0.18864    0.05175    1.000
    Si4671   Si       0.95909    0.21544    0.07069    1.000
    N4672    N        0.92492    0.21427    0.09766    1.000
    N4673    N        0.94726    0.23654    0.03419    1.000
    N4674    N        0.90741    0.18560    0.00891    1.000
    Si4675   Si       0.93816    0.21395    0.99700    1.000
    Si4676   Si       0.90107    0.24084    0.12142    1.000
    Si4677   Si       0.79901    0.21056    0.18761    1.000
    Si4678   Si       0.76363    0.20079    0.12749    1.000
    N4679    N        0.80678    0.19897    0.14598    1.000
    N4680    N        0.82867    0.20204    0.21939    1.000
    Si4681   Si       0.84547    0.23537    0.24045    1.000
    Si4682   Si       0.97964    0.18441    0.15248    1.000
    Si4683   Si       0.95896    0.18799    0.22631    1.000
    N4684    N        0.97378    0.22831    0.15039    1.000
    N4685    N        0.94461    0.22749    0.21521    1.000
    N4686    N        0.76393    0.23160    0.31629    1.000
    Si4687   Si       0.75577    0.19317    0.29893    1.000
    N4688    N        0.87384    0.23803    0.32997    1.000
    N4689    N        0.88638    0.22600    0.25983    1.000
    Si4690   Si       0.87835    0.19652    0.34140    1.000
    N4691    N        0.91264    0.19063    0.36354    1.000
    N4692    N        0.85057    0.20638    0.37925    1.000
    Si4693   Si       0.76280    0.22180    0.43061    1.000
    N4694    N        0.78452    0.23320    0.39207    1.000
    Si4695   Si       0.81041    0.19232    0.39445    1.000
    N4696    N        0.85411    0.19348    0.44680    1.000
    Si4697   Si       0.85446    0.22412    0.48003    1.000
    N4698    N        0.79053    0.18594    0.43335    1.000
    N4699    N        0.97708    0.23467    0.46113    1.000
    Si4700   Si       0.95491    0.22344    0.42306    1.000
    N4701    N        0.91139    0.22601    0.42467    1.000
    Si4702   Si       0.88935    0.19561    0.40198    1.000
    N4703    N        0.96717    0.18614    0.40606    1.000
    N4704    N        0.84428    0.21800    0.56419    1.000
    Si4705   Si       0.83504    0.23399    0.60391    1.000
    N4706    N        0.79683    0.21464    0.61258    1.000
    N4707    N        0.75162    0.20537    0.51379    1.000
    Si4708   Si       0.78248    0.23282    0.50071    1.000
    N4709    N        0.81869    0.20460    0.49728    1.000
    Si4710   Si       0.83047    0.18702    0.53857    1.000
    N4711    N        0.96234    0.22213    0.57300    1.000
    N4712    N        0.88454    0.21826    0.51039    1.000
    Si4713   Si       0.98202    0.23539    0.61136    1.000
    Si4714   Si       0.87473    0.24501    0.54360    1.000
    N4715    N        0.77812    0.24293    0.67655    1.000
    Si4716   Si       0.78244    0.20698    0.65546    1.000
    N4717    N        0.85993    0.21808    0.63666    1.000
    Si4718   Si       0.99169    0.20292    0.73956    1.000
    Si4719   Si       0.87910    0.23971    0.67070    1.000
    N4720    N        0.95413    0.21122    0.71448    1.000
    N4721    N        0.98554    0.20900    0.64662    1.000
    N4722    N        0.88708    0.20005    0.69107    1.000
    Si4723   Si       0.92346    0.18256    0.70710    1.000
    N4724    N        0.77103    0.20043    0.78138    1.000
    Si4725   Si       0.80852    0.19834    0.85709    1.000
    N4726    N        0.84319    0.20198    0.75272    1.000
    N4727    N        0.80302    0.24019    0.84814    1.000
    Si4728   Si       0.74358    0.23374    0.78400    1.000
    N4729    N        0.86254    0.23974    0.80657    1.000
    Si4730   Si       0.86288    0.23954    0.76211    1.000
    N4731    N        0.93029    0.21553    0.81176    1.000
    N4732    N        0.97961    0.22971    0.85372    1.000
    N4733    N        0.90550    0.22937    0.87107    1.000
    Si4734   Si       0.96877    0.23937    0.81389    1.000
    N4735    N        0.98778    0.22820    0.77696    1.000
    N4736    N        0.79128    0.22390    0.92111    1.000
    N4737    N        0.84286    0.19849    0.88439    1.000
    Si4738   Si       0.83629    0.21870    0.92400    1.000
    Si4739   Si       0.75431    0.20426    0.89964    1.000
    N4740    N        0.85170    0.19077    0.95266    1.000
    N4741    N        0.85707    0.24094    0.99427    1.000
    Si4742   Si       0.94736    0.21382    0.87646    1.000
    Si4743   Si       0.88397    0.18754    0.87615    1.000
    Si4744   Si       0.97353    0.18610    0.93568    1.000
    N4745    N        0.97323    0.19717    0.97833    1.000
    Si4746   Si       0.86682    0.19842    0.99339    1.000
    N4747    N        0.95186    0.22116    0.91930    1.000
    N4748    N        0.79739    0.27424    0.10458    1.000
    Si4749   Si       0.82035    0.25582    0.01236    1.000
    Si4750   Si       0.83951    0.27573    0.11374    1.000
    Si4751   Si       0.74608    0.26048    0.00673    1.000
    Si4752   Si       0.78405    0.24775    0.07466    1.000
    N4753    N        0.74916    0.24716    0.04708    1.000
    N4754    N        0.82247    0.29978    0.02373    1.000
    Si4755   Si       0.92982    0.27377    0.01655    1.000
    N4756    N        0.89449    0.28620    0.03959    1.000
    N4757    N        0.92038    0.27764    0.10834    1.000
    Si4758   Si       0.90017    0.30418    0.07865    1.000
    N4759    N        0.98606    0.29716    0.11875    1.000
    N4760    N        0.84581    0.27158    0.21722    1.000
    Si4761   Si       0.75102    0.26652    0.16217    1.000
    Si4762   Si       0.81517    0.28418    0.18709    1.000
    N4763    N        0.78721    0.25313    0.18228    1.000
    N4764    N        0.84537    0.28713    0.15517    1.000
    N4765    N        0.74184    0.29804    0.13332    1.000
    Si4766   Si       0.92044    0.25155    0.24461    1.000
    N4767    N        0.95796    0.29093    0.17665    1.000
    N4768    N        0.90554    0.28428    0.22004    1.000
    Si4769   Si       0.88070    0.27754    0.18209    1.000
    Si4770   Si       0.94491    0.24967    0.17726    1.000
    N4771    N        0.90304    0.24305    0.16388    1.000
    Si4772   Si       0.86939    0.30174    0.23941    1.000
    N4773    N        0.81538    0.26774    0.34561    1.000
    Si4774   Si       0.79651    0.26110    0.30759    1.000
    N4775    N        0.74360    0.27927    0.36037    1.000
    Si4776   Si       0.85032    0.24955    0.36378    1.000
    N4777    N        0.82537    0.24366    0.27817    1.000
    Si4778   Si       0.86694    0.25267    0.29197    1.000
    Si4779   Si       0.98645    0.27614    0.29944    1.000
    N4780    N        0.87857    0.29158    0.28041    1.000
    N4781    N        0.95646    0.25771    0.26909    1.000
    N4782    N        0.90763    0.30560    0.34236    1.000
    Si4783   Si       0.78430    0.27445    0.37760    1.000
    N4784    N        0.78810    0.30116    0.41046    1.000
    Si4785   Si       0.78374    0.29000    0.45211    1.000
    Si4786   Si       0.85653    0.29770    0.48510    1.000
    N4787    N        0.77961    0.24867    0.46054    1.000
    N4788    N        0.86588    0.26177    0.46140    1.000
    N4789    N        0.96931    0.25503    0.39993    1.000
    N4790    N        0.92198    0.30122    0.41781    1.000
    Si4791   Si       0.89711    0.26657    0.43053    1.000
    N4792    N        0.87095    0.27208    0.39511    1.000
    N4793    N        0.77900    0.26606    0.52679    1.000
    N4794    N        0.84112    0.27755    0.60802    1.000
    N4795    N        0.85213    0.27644    0.52608    1.000
    Si4796   Si       0.81031    0.29305    0.53136    1.000
    N4797    N        0.89696    0.26111    0.57724    1.000
    Si4798   Si       0.93956    0.26076    0.57666    1.000
    N4799    N        0.94993    0.29065    0.54652    1.000
    Si4800   Si       0.88072    0.29576    0.59920    1.000
    N4801    N        0.95193    0.26749    0.61818    1.000
    Si4802   Si       0.74091    0.30036    0.64800    1.000
    N4803    N        0.84605    0.26663    0.68158    1.000
    Si4804   Si       0.80356    0.27613    0.67207    1.000
    Si4805   Si       0.84584    0.29925    0.71266    1.000
    N4806    N        0.78512    0.30089    0.63928    1.000
    Si4807   Si       0.74443    0.24936    0.70512    1.000
    Si4808   Si       0.93580    0.24921    0.71761    1.000
    N4809    N        0.95889    0.27649    0.74125    1.000
    Si4810   Si       0.93483    0.28805    0.65275    1.000
    N4811    N        0.91839    0.25713    0.67837    1.000
    Si4812   Si       0.76555    0.25894    0.85309    1.000
    Si4813   Si       0.83681    0.26147    0.83416    1.000
    N4814    N        0.84718    0.28082    0.75269    1.000
    N4815    N        0.74264    0.26537    0.81547    1.000
    N4816    N        0.77046    0.29875    0.87071    1.000
    N4817    N        0.81733    0.29843    0.82305    1.000
    N4818    N        0.87181    0.27889    0.85447    1.000
    Si4819   Si       0.91902    0.28484    0.76338    1.000
    N4820    N        0.91633    0.28156    0.80745    1.000
    N4821    N        0.98873    0.28219    0.80762    1.000
    Si4822   Si       0.90097    0.24401    0.82830    1.000
    N4823    N        0.90380    0.24645    0.74851    1.000
    N4824    N        0.78325    0.24998    0.98859    1.000
    Si4825   Si       0.78166    0.25901    0.94543    1.000
    N4826    N        0.81184    0.28979    0.93739    1.000
    N4827    N        0.74560    0.27900    0.93521    1.000
    N4828    N        0.98557    0.27171    0.95730    1.000
    N4829    N        0.92563    0.28475    0.91766    1.000
    Si4830   Si       0.89049    0.26642    0.89220    1.000
    Si4831   Si       0.88133    0.26498    0.96489    1.000
    N4832    N        0.86688    0.25070    0.92432    1.000
    N4833    N        0.92084    0.25146    0.97715    1.000
    Si4834   Si       0.94690    0.25688    0.94224    1.000
    N4835    N        0.76583    0.32117    0.06774    1.000
    Si4836   Si       0.78462    0.32302    0.02585    1.000
    Si4837   Si       0.77437    0.31062    0.10834    1.000
    Si4838   Si       0.85524    0.35285    0.08113    1.000
    N4839    N        0.85920    0.31201    0.09650    1.000
    N4840    N        0.75002    0.30396    0.00453    1.000
    Si4841   Si       0.86510    0.31082    0.02051    1.000
    N4842    N        0.87209    0.34908    0.04092    1.000
    Si4843   Si       0.95648    0.33782    0.04346    1.000
    N4844    N        0.93167    0.33424    0.08040    1.000
    N4845    N        0.95821    0.30532    0.01476    1.000
    N4846    N        0.79547    0.34395    0.12737    1.000
    N4847    N        0.78953    0.31946    0.19156    1.000
    Si4848   Si       0.76004    0.34854    0.20853    1.000
    Si4849   Si       0.80825    0.35328    0.16929    1.000
    N4850    N        0.85082    0.35060    0.17581    1.000
    N4851    N        0.85857    0.34451    0.24355    1.000
    N4852    N        0.96289    0.32207    0.23123    1.000
    Si4853   Si       0.86826    0.32861    0.14105    1.000
    N4854    N        0.90367    0.31003    0.15973    1.000
    Si4855   Si       0.92997    0.31706    0.20092    1.000
    Si4856   Si       0.94461    0.30525    0.13442    1.000
    N4857    N        0.95428    0.35180    0.14201    1.000
    Si4858   Si       0.80887    0.33649    0.32019    1.000
    N4859    N        0.81129    0.34777    0.36348    1.000
    Si4860   Si       0.75051    0.31571    0.28363    1.000
    N4861    N        0.85461    0.34300    0.31774    1.000
    N4862    N        0.75786    0.34583    0.25149    1.000
    N4863    N        0.78912    0.30364    0.30054    1.000
    Si4864   Si       0.95739    0.33867    0.27073    1.000
    Si4865   Si       0.89133    0.32221    0.30807    1.000
    N4866    N        0.91869    0.34957    0.28828    1.000
    N4867    N        0.98268    0.31843    0.29929    1.000
    N4868    N        0.97783    0.31496    0.36949    1.000
    N4869    N        0.75578    0.32364    0.46181    1.000
    Si4870   Si       0.78600    0.34449    0.39762    1.000
    Si4871   Si       0.79406    0.34541    0.47560    1.000
    N4872    N        0.74648    0.35299    0.37899    1.000
    N4873    N        0.80047    0.36142    0.43666    1.000
    N4874    N        0.81233    0.30502    0.48529    1.000
    N4875    N        0.88005    0.34759    0.38968    1.000
    Si4876   Si       0.89619    0.30894    0.38317    1.000
    Si4877   Si       0.96336    0.31703    0.41045    1.000
    N4878    N        0.86745    0.33348    0.46361    1.000
    N4879    N        0.80759    0.31796    0.56741    1.000
    Si4880   Si       0.81566    0.31419    0.60923    1.000
    N4881    N        0.78052    0.35522    0.51566    1.000
    Si4882   Si       0.80453    0.35966    0.55171    1.000
    N4883    N        0.88989    0.33243    0.57922    1.000
    Si4884   Si       0.94441    0.33510    0.54472    1.000
    N4885    N        0.95393    0.34822    0.58635    1.000
    N4886    N        0.98120    0.33791    0.51945    1.000
    N4887    N        0.91423    0.35542    0.52215    1.000
    Si4888   Si       0.91605    0.36137    0.60344    1.000
    N4889    N        0.83682    0.34721    0.63049    1.000
    Si4890   Si       0.78587    0.33740    0.72814    1.000
    N4891    N        0.86092    0.33532    0.69668    1.000
    N4892    N        0.74161    0.33844    0.73081    1.000
    N4893    N        0.80242    0.30153    0.70824    1.000
    N4894    N        0.96432    0.31022    0.67904    1.000
    N4895    N        0.89736    0.30639    0.63822    1.000
    N4896    N        0.91693    0.32274    0.74341    1.000
    Si4897   Si       0.95436    0.32910    0.71805    1.000
    Si4898   Si       0.87425    0.34022    0.65415    1.000
    N4899    N        0.79836    0.33305    0.76894    1.000
    Si4900   Si       0.80298    0.32378    0.85414    1.000
    Si4901   Si       0.76748    0.34838    0.79516    1.000
    Si4902   Si       0.83334    0.30959    0.78362    1.000
    N4903    N        0.78715    0.35854    0.83510    1.000
    N4904    N        0.87052    0.32866    0.79629    1.000
    N4905    N        0.90486    0.34063    0.85211    1.000
    N4906    N        0.97882    0.34749    0.82054    1.000
    Si4907   Si       0.89096    0.30871    0.82879    1.000
    Si4908   Si       0.89657    0.35277    0.76884    1.000
    N4909    N        0.98680    0.33748    0.74917    1.000
    Si4910   Si       0.94726    0.35547    0.85067    1.000
    N4911    N        0.83836    0.35423    0.94690    1.000
    N4912    N        0.83750    0.33452    0.87913    1.000
    Si4913   Si       0.81911    0.32804    0.92022    1.000
    N4914    N        0.77743    0.34492    0.91749    1.000
    Si4915   Si       0.75073    0.31066    0.90647    1.000
    N4916    N        0.87762    0.30684    0.97785    1.000
    Si4917   Si       0.88154    0.34512    0.95771    1.000
    N4918    N        0.96321    0.34220    0.88970    1.000
    Si4919   Si       0.93579    0.32603    0.91902    1.000
    Si4920   Si       0.87599    0.35525    0.88139    1.000
    N4921    N        0.94782    0.33956    0.96024    1.000
    N4922    N        0.89894    0.34830    0.91726    1.000
    Si4923   Si       0.98381    0.31486    0.97788    1.000
    Si4924   Si       0.79240    0.37944    0.10614    1.000
    Si4925   Si       0.80767    0.39683    0.03574    1.000
    N4926    N        0.82089    0.37898    0.07410    1.000
    N4927    N        0.75180    0.38318    0.08810    1.000
    N4928    N        0.83585    0.39635    0.00458    1.000
    N4929    N        0.77653    0.36748    0.02033    1.000
    Si4930   Si       0.87553    0.38675    0.01867    1.000
    N4931    N        0.94399    0.40399    0.09021    1.000
    N4932    N        0.94483    0.37668    0.02732    1.000
    Si4933   Si       0.93478    0.41243    0.04838    1.000
    Si4934   Si       0.92731    0.36838    0.10706    1.000
    N4935    N        0.88251    0.36460    0.11485    1.000
    N4936    N        0.78642    0.38136    0.19497    1.000
    N4937    N        0.80055    0.41284    0.13334    1.000
    N4938    N        0.91576    0.35995    0.20036    1.000
    N4939    N        0.87227    0.41190    0.20995    1.000
    Si4940   Si       0.94152    0.38217    0.17368    1.000
    N4941    N        0.92461    0.41547    0.15353    1.000
    N4942    N        0.98272    0.38630    0.18887    1.000
    Si4943   Si       0.87328    0.36803    0.20869    1.000
    Si4944   Si       0.76682    0.38369    0.27375    1.000
    N4945    N        0.75071    0.40283    0.31248    1.000
    N4946    N        0.80417    0.37047    0.29044    1.000
    Si4947   Si       0.84636    0.36737    0.27881    1.000
    Si4948   Si       0.85344    0.36209    0.35875    1.000
    N4949    N        0.75894    0.41712    0.24599    1.000
    N4950    N        0.86254    0.40439    0.35199    1.000
    N4951    N        0.86285    0.40735    0.27636    1.000
    Si4952   Si       0.95641    0.40175    0.29982    1.000
    N4953    N        0.97027    0.38011    0.26304    1.000
    N4954    N        0.98083    0.38230    0.33080    1.000
    N4955    N        0.92128    0.42261    0.31785    1.000
    N4956    N        0.74552    0.42014    0.48415    1.000
    Si4957   Si       0.81243    0.40238    0.43978    1.000
    N4958    N        0.85053    0.39888    0.42018    1.000
    N4959    N        0.81527    0.41026    0.48232    1.000
    N4960    N        0.77495    0.41900    0.42495    1.000
    N4961    N        0.91007    0.38329    0.45099    1.000
    Si4962   Si       0.93922    0.39667    0.42180    1.000
    Si4963   Si       0.87345    0.36381    0.43350    1.000
    N4964    N        0.95956    0.40058    0.49471    1.000
    Si4965   Si       0.91680    0.38876    0.49460    1.000
    N4966    N        0.96015    0.36090    0.41262    1.000
    N4967    N        0.79391    0.38792    0.58290    1.000
    N4968    N        0.84313    0.37586    0.53953    1.000
    Si4969   Si       0.75120    0.39549    0.58168    1.000
    Si4970   Si       0.84473    0.41025    0.51344    1.000
    N4971    N        0.89919    0.39547    0.58038    1.000
    N4972    N        0.88635    0.41751    0.51225    1.000
    Si4973   Si       0.88382    0.36610    0.55064    1.000
    N4974    N        0.84278    0.41742    0.62393    1.000
    Si4975   Si       0.81291    0.38522    0.62254    1.000
    N4976    N        0.85647    0.41056    0.69455    1.000
    Si4977   Si       0.84813    0.37432    0.71541    1.000
    N4978    N        0.77695    0.39169    0.65155    1.000
    N4979    N        0.80300    0.37257    0.71104    1.000
    Si4980   Si       0.77567    0.40353    0.69410    1.000
    N4981    N        0.90893    0.36982    0.64657    1.000
    N4982    N        0.98119    0.38546    0.63335    1.000
    Si4983   Si       0.94581    0.38648    0.66401    1.000
    N4984    N        0.94762    0.37114    0.70283    1.000
    N4985    N        0.75882    0.38719    0.77376    1.000
    Si4986   Si       0.79389    0.40002    0.84148    1.000
    N4987    N        0.81588    0.41166    0.80636    1.000
    Si4988   Si       0.85047    0.41514    0.78003    1.000
    N4989    N        0.86283    0.38055    0.75480    1.000
    N4990    N        0.92879    0.37674    0.78337    1.000
    N4991    N        0.93373    0.39918    0.84900    1.000
    Si4992   Si       0.92207    0.41225    0.80830    1.000
    Si4993   Si       0.97380    0.36628    0.78035    1.000
    N4994    N        0.78590    0.40001    0.95496    1.000
    Si4995   Si       0.82817    0.39375    0.96175    1.000
    Si4996   Si       0.75747    0.39234    0.98821    1.000
    N4997    N        0.80184    0.40099    0.88407    1.000
    Si4998   Si       0.77542    0.38929    0.91449    1.000
    N4999    N        0.95352    0.41693    0.97431    1.000
    N5000    N        0.89487    0.38159    0.97789    1.000
    Si5001   Si       0.93879    0.37643    0.98312    1.000
    N5002    N        0.87037    0.39806    0.87664    1.000
    N5003    N        0.78835    0.43617    0.04276    1.000
    Si5004   Si       0.81784    0.46917    0.05150    1.000
    N5005    N        0.84453    0.46058    0.08724    1.000
    N5006    N        0.84458    0.47016    0.01846    1.000
    Si5007   Si       0.74592    0.44431    0.03864    1.000
    N5008    N        0.74101    0.43214    0.99561    1.000
    N5009    N        0.89536    0.42165    0.03440    1.000
    N5010    N        0.95707    0.44946    0.04181    1.000
    Si5011   Si       0.88588    0.46109    0.01565    1.000
    N5012    N        0.91367    0.46613    0.09961    1.000
    Si5013   Si       0.94029    0.43695    0.11808    1.000
    Si5014   Si       0.96824    0.44870    0.00041    1.000
    Si5015   Si       0.87597    0.47808    0.11593    1.000
    Si5016   Si       0.82378    0.44850    0.12531    1.000
    N5017    N        0.81638    0.44440    0.23392    1.000
    N5018    N        0.77679    0.44942    0.18147    1.000
    Si5019   Si       0.76124    0.42730    0.14645    1.000
    Si5020   Si       0.85739    0.43381    0.24322    1.000
    Si5021   Si       0.78817    0.42067    0.21271    1.000
    N5022    N        0.86073    0.44997    0.14907    1.000
    N5023    N        0.91307    0.46549    0.19750    1.000
    N5024    N        0.97865    0.45645    0.11984    1.000
    N5025    N        0.97509    0.43804    0.23346    1.000
    Si5026   Si       0.89103    0.43362    0.17560    1.000
    Si5027   Si       0.95228    0.47104    0.21499    1.000
    Si5028   Si       0.76184    0.43787    0.33473    1.000
    N5029    N        0.79918    0.43987    0.35748    1.000
    Si5030   Si       0.83319    0.46557    0.35419    1.000
    N5031    N        0.76938    0.47022    0.30505    1.000
    Si5032   Si       0.75373    0.45836    0.26558    1.000
    N5033    N        0.85717    0.45998    0.31619    1.000
    N5034    N        0.87235    0.47354    0.25166    1.000
    Si5035   Si       0.93086    0.43819    0.35816    1.000
    N5036    N        0.97226    0.44200    0.36683    1.000
    Si5037   Si       0.87786    0.42206    0.31505    1.000
    N5038    N        0.98586    0.43560    0.29809    1.000
    N5039    N        0.91798    0.47974    0.35799    1.000
    Si5040   Si       0.77731    0.44948    0.39441    1.000
    N5041    N        0.85625    0.46238    0.39044    1.000
    Si5042   Si       0.78420    0.43952    0.50002    1.000
    N5043    N        0.92680    0.46092    0.47869    1.000
    N5044    N        0.97008    0.42541    0.43252    1.000
    Si5045   Si       0.87087    0.42222    0.39275    1.000
    Si5046   Si       0.96467    0.43900    0.47317    1.000
    N5047    N        0.91368    0.41793    0.39284    1.000
    N5048    N        0.82800    0.45047    0.52665    1.000
    N5049    N        0.76070    0.44453    0.53689    1.000
    Si5050   Si       0.75640    0.46772    0.57247    1.000
    Si5051   Si       0.82769    0.47478    0.56101    1.000
    N5052    N        0.86754    0.46859    0.58204    1.000
    Si5053   Si       0.87948    0.43033    0.59852    1.000
    Si5054   Si       0.90712    0.45577    0.51958    1.000
    N5055    N        0.93763    0.46065    0.54968    1.000
    N5056    N        0.96964    0.45661    0.61358    1.000
    Si5057   Si       0.97098    0.47261    0.57300    1.000
    Si5058   Si       0.83252    0.44518    0.71038    1.000
    N5059    N        0.78910    0.44101    0.70991    1.000
    N5060    N        0.84893    0.46965    0.67921    1.000
    Si5061   Si       0.77509    0.47591    0.73017    1.000
    N5062    N        0.89958    0.44311    0.63461    1.000
    Si5063   Si       0.86325    0.43354    0.65991    1.000
    N5064    N        0.95505    0.43029    0.66886    1.000
    Si5065   Si       0.93641    0.46639    0.64343    1.000
    Si5066   Si       0.97287    0.46043    0.69704    1.000
    N5067    N        0.97090    0.46167    0.73996    1.000
    N5068    N        0.76900    0.46249    0.77173    1.000
    Si5069   Si       0.77567    0.42487    0.79021    1.000
    N5070    N        0.75891    0.42436    0.83080    1.000
    N5071    N        0.84622    0.44870    0.75016    1.000
    Si5072   Si       0.86327    0.45635    0.83851    1.000
    N5073    N        0.94879    0.44264    0.79421    1.000
    N5074    N        0.90032    0.46252    0.86172    1.000
    N5075    N        0.87974    0.42555    0.80908    1.000
    Si5076   Si       0.98965    0.43875    0.77283    1.000
    N5077    N        0.83610    0.46019    0.87479    1.000
    N5078    N        0.76482    0.45538    0.91178    1.000
    Si5079   Si       0.83843    0.42123    0.89532    1.000
    N5080    N        0.85128    0.42057    0.93609    1.000
    Si5081   Si       0.89188    0.42153    0.95180    1.000
    Si5082   Si       0.90969    0.42149    0.87592    1.000
    N5083    N        0.91888    0.42480    0.91713    1.000
    N5084    N        0.89762    0.46111    0.97442    1.000
    N5085    N        0.98733    0.46037    0.92818    1.000
    Si5086   Si       0.96169    0.42560    0.93115    1.000
    N5087    N        0.80769    0.50987    0.05994    1.000
    Si5088   Si       0.79748    0.52161    0.10154    1.000
    N5089    N        0.75476    0.52674    0.10522    1.000
    N5090    N        0.96540    0.51336    0.07241    1.000
    N5091    N        0.90433    0.49533    0.03653    1.000
    Si5092   Si       0.93569    0.48193    0.06341    1.000
    Si5093   Si       0.89393    0.53852    0.04299    1.000
    Si5094   Si       0.78919    0.49024    0.17166    1.000
    N5095    N        0.82333    0.50069    0.19980    1.000
    N5096    N        0.75819    0.52097    0.17647    1.000
    Si5097   Si       0.85217    0.52458    0.17776    1.000
    Si5098   Si       0.75628    0.52901    0.21801    1.000
    N5099    N        0.76549    0.49153    0.23859    1.000
    Si5100   Si       0.81011    0.48836    0.23970    1.000
    N5101    N        0.80590    0.48978    0.13178    1.000
    N5102    N        0.97972    0.48665    0.18697    1.000
    N5103    N        0.86962    0.51552    0.13768    1.000
    N5104    N        0.93737    0.49972    0.24660    1.000
    Si5105   Si       0.98403    0.49365    0.14561    1.000
    N5106    N        0.96391    0.53214    0.13558    1.000
    Si5107   Si       0.90006    0.49560    0.22679    1.000
    N5108    N        0.88470    0.53107    0.20783    1.000
    N5109    N        0.82035    0.50968    0.27690    1.000
    Si5110   Si       0.78887    0.50707    0.31160    1.000
    N5111    N        0.81632    0.50455    0.34583    1.000
    Si5112   Si       0.86076    0.49231    0.28905    1.000
    Si5113   Si       0.92671    0.51241    0.33115    1.000
    N5114    N        0.89090    0.51768    0.30855    1.000
    N5115    N        0.96511    0.51232    0.31360    1.000
    Si5116   Si       0.96796    0.52327    0.27038    1.000
    N5117    N        0.79366    0.48456    0.41444    1.000
    N5118    N        0.82232    0.52875    0.44851    1.000
    Si5119   Si       0.78528    0.50566    0.44982    1.000
    Si5120   Si       0.83933    0.49302    0.42126    1.000
    N5121    N        0.85956    0.52336    0.39469    1.000
    Si5122   Si       0.83635    0.47946    0.49337    1.000
    N5123    N        0.79277    0.47833    0.48213    1.000
    N5124    N        0.85976    0.47648    0.45516    1.000
    Si5125   Si       0.89996    0.50877    0.38785    1.000
    Si5126   Si       0.94843    0.52768    0.44444    1.000
    N5127    N        0.91862    0.50363    0.42547    1.000
    Si5128   Si       0.89987    0.49286    0.46956    1.000
    N5129    N        0.98662    0.50590    0.44953    1.000
    N5130    N        0.92695    0.52766    0.48384    1.000
    Si5131   Si       0.80300    0.51674    0.61225    1.000
    N5132    N        0.82546    0.51640    0.53994    1.000
    N5133    N        0.84724    0.52982    0.61618    1.000
    N5134    N        0.79429    0.48061    0.58879    1.000
    Si5135   Si       0.86768    0.52487    0.53182    1.000
    Si5136   Si       0.88156    0.50747    0.60002    1.000
    N5137    N        0.96880    0.51826    0.57545    1.000
    N5138    N        0.87895    0.48898    0.51064    1.000
    Si5139   Si       0.94742    0.53539    0.61049    1.000
    N5140    N        0.89303    0.53328    0.56710    1.000
    N5141    N        0.92035    0.50216    0.62083    1.000
    N5142    N        0.79595    0.51700    0.65519    1.000
    Si5143   Si       0.82738    0.50734    0.68297    1.000
    N5144    N        0.80624    0.50561    0.72103    1.000
    N5145    N        0.73619    0.49418    0.72338    1.000
    N5146    N        0.94875    0.49089    0.67869    1.000
    Si5147   Si       0.95538    0.53358    0.68044    1.000
    Si5148   Si       0.80850    0.50410    0.81740    1.000
    N5149    N        0.76504    0.49508    0.82746    1.000
    N5150    N        0.81679    0.52804    0.85441    1.000
    N5151    N        0.79831    0.53012    0.78421    1.000
    N5152    N        0.85669    0.52913    0.75614    1.000
    Si5153   Si       0.85794    0.48640    0.76827    1.000
    N5154    N        0.84540    0.48301    0.80976    1.000
    Si5155   Si       0.74274    0.51993    0.85697    1.000
    Si5156   Si       0.73921    0.48771    0.79213    1.000
    N5157    N        0.92572    0.52781    0.85495    1.000
    N5158    N        0.95623    0.51278    0.79291    1.000
    Si5159   Si       0.96294    0.52018    0.83418    1.000
    N5160    N        0.90208    0.48941    0.76947    1.000
    N5161    N        0.97973    0.48653    0.85855    1.000
    Si5162   Si       0.89608    0.53267    0.77584    1.000
    Si5163   Si       0.94305    0.47874    0.76958    1.000
    N5164    N        0.74479    0.51991    0.89900    1.000
    N5165    N        0.75116    0.49529    0.96519    1.000
    N5166    N        0.80835    0.51382    0.92264    1.000
    Si5167   Si       0.83222    0.50202    0.88734    1.000
    Si5168   Si       0.77020    0.49495    0.92605    1.000
    Si5169   Si       0.76383    0.53205    0.98461    1.000
    N5170    N        0.80622    0.53833    0.99118    1.000
    Si5171   Si       0.92200    0.49535    0.95858    1.000
    Si5172   Si       0.97481    0.49254    0.90196    1.000
    Si5173   Si       0.90848    0.49948    0.88343    1.000
    N5174    N        0.95773    0.48797    0.98684    1.000
    N5175    N        0.87285    0.51542    0.90131    1.000
    N5176    N        0.93474    0.49372    0.91576    1.000
    N5177    N        0.90567    0.53642    0.95761    1.000
    N5178    N        0.79064    0.57754    0.04858    1.000
    N5179    N        0.82425    0.55435    0.10532    1.000
    N5180    N        0.85754    0.56211    0.03666    1.000
    Si5181   Si       0.75055    0.58025    0.03004    1.000
    Si5182   Si       0.80577    0.59042    0.08843    1.000
    Si5183   Si       0.81779    0.54528    0.03438    1.000
    Si5184   Si       0.86712    0.55030    0.11186    1.000
    N5185    N        0.95830    0.58098    0.08314    1.000
    N5186    N        0.92278    0.56404    0.02247    1.000
    Si5187   Si       0.94457    0.54303    0.09913    1.000
    N5188    N        0.90310    0.54197    0.08676    1.000
    Si5189   Si       0.93687    0.59538    0.04778    1.000
    Si5190   Si       0.80441    0.58191    0.20280    1.000
    N5191    N        0.83407    0.56522    0.17762    1.000
    N5192    N        0.79295    0.55335    0.23120    1.000
    N5193    N        0.77038    0.59500    0.17897    1.000
    N5194    N        0.95360    0.59044    0.17067    1.000
    N5195    N        0.87698    0.59166    0.12768    1.000
    Si5196   Si       0.98268    0.55859    0.16521    1.000
    Si5197   Si       0.88527    0.56925    0.22796    1.000
    N5198    N        0.92611    0.58639    0.23873    1.000
    N5199    N        0.85210    0.56636    0.33823    1.000
    Si5200   Si       0.82116    0.55226    0.26688    1.000
    N5201    N        0.80860    0.58376    0.29332    1.000
    Si5202   Si       0.76525    0.58293    0.31079    1.000
    N5203    N        0.86314    0.56215    0.26267    1.000
    N5204    N        0.76055    0.53930    0.31929    1.000
    Si5205   Si       0.83080    0.54139    0.36656    1.000
    Si5206   Si       0.92170    0.58553    0.35015    1.000
    Si5207   Si       0.87892    0.55853    0.30524    1.000
    N5208    N        0.91681    0.58078    0.30923    1.000
    N5209    N        0.96413    0.58906    0.35401    1.000
    N5210    N        0.98086    0.56509    0.27276    1.000
    Si5211   Si       0.94534    0.59277    0.27780    1.000
    N5212    N        0.92152    0.54220    0.36592    1.000
    Si5213   Si       0.77032    0.58711    0.37919    1.000
    Si5214   Si       0.75979    0.56710    0.48365    1.000
    Si5215   Si       0.82061    0.56963    0.43324    1.000
    N5216    N        0.80513    0.56563    0.39232    1.000
    N5217    N        0.79084    0.59324    0.45835    1.000
    N5218    N        0.85603    0.59472    0.43201    1.000
    N5219    N        0.75299    0.53426    0.45274    1.000
    Si5220   Si       0.91853    0.56755    0.49663    1.000
    Si5221   Si       0.96083    0.59275    0.44716    1.000
    Si5222   Si       0.96303    0.55390    0.37944    1.000
    N5223    N        0.91831    0.58687    0.45490    1.000
    N5224    N        0.96629    0.55967    0.42130    1.000
    Si5225   Si       0.79842    0.55166    0.54694    1.000
    Si5226   Si       0.74912    0.57027    0.60742    1.000
    N5227    N        0.76279    0.54874    0.52340    1.000
    N5228    N        0.78198    0.54762    0.58867    1.000
    N5229    N        0.81674    0.59068    0.54292    1.000
    N5230    N        0.94083    0.57302    0.53564    1.000
    N5231    N        0.92702    0.57461    0.60724    1.000
    Si5232   Si       0.91005    0.57443    0.56945    1.000
    N5233    N        0.87644    0.56416    0.51265    1.000
    Si5234   Si       0.97747    0.54673    0.54469    1.000
    N5235    N        0.75699    0.55572    0.71121    1.000
    N5236    N        0.80299    0.58007    0.65093    1.000
    Si5237   Si       0.84245    0.56083    0.64729    1.000
    Si5238   Si       0.77233    0.55172    0.66727    1.000
    N5239    N        0.81453    0.58315    0.73702    1.000
    Si5240   Si       0.77015    0.59145    0.73433    1.000
    N5241    N        0.85509    0.54050    0.68250    1.000
    N5242    N        0.97618    0.54088    0.64190    1.000
    Si5243   Si       0.95673    0.57370    0.74107    1.000
    Si5244   Si       0.88896    0.55810    0.70887    1.000
    N5245    N        0.92098    0.55936    0.67738    1.000
    Si5246   Si       0.91221    0.58808    0.64530    1.000
    N5247    N        0.97763    0.54750    0.71443    1.000
    N5248    N        0.91633    0.55610    0.74428    1.000
    N5249    N        0.87044    0.59128    0.63519    1.000
    N5250    N        0.75961    0.55590    0.83815    1.000
    Si5251   Si       0.80036    0.56642    0.85211    1.000
    Si5252   Si       0.76179    0.55122    0.79492    1.000
    N5253    N        0.75611    0.59238    0.77683    1.000
    Si5254   Si       0.85509    0.59069    0.80736    1.000
    N5255    N        0.81215    0.59151    0.81820    1.000
    Si5256   Si       0.81706    0.54060    0.74650    1.000
    Si5257   Si       0.90877    0.56844    0.84388    1.000
    N5258    N        0.88213    0.55778    0.81127    1.000
    N5259    N        0.94265    0.58890    0.82713    1.000
    Si5260   Si       0.98437    0.58752    0.81587    1.000
    N5261    N        0.98686    0.58292    0.77192    1.000
    N5262    N        0.76449    0.55970    0.95023    1.000
    N5263    N        0.84527    0.57104    0.93290    1.000
    N5264    N        0.80095    0.59140    0.88727    1.000
    Si5265   Si       0.81237    0.54918    0.94913    1.000
    N5266    N        0.90101    0.58090    0.89016    1.000
    N5267    N        0.97686    0.59096    0.91204    1.000
    Si5268   Si       0.88306    0.55203    0.92166    1.000
    N5269    N        0.96994    0.54442    0.96263    1.000
    Si5270   Si       0.93253    0.56119    0.97839    1.000
    N5271    N        0.84077    0.61598    0.07621    1.000
    N5272    N        0.77874    0.61436    0.11137    1.000
    N5273    N        0.85242    0.62478    0.00126    1.000
    Si5274   Si       0.86220    0.60665    0.03899    1.000
    N5275    N        0.75466    0.64857    0.05818    1.000
    Si5276   Si       0.74825    0.64819    0.01495    1.000
    Si5277   Si       0.87765    0.62411    0.09940    1.000
    N5278    N        0.94779    0.62829    0.02263    1.000
    N5279    N        0.90037    0.61572    0.06161    1.000
    Si5280   Si       0.83619    0.65384    0.21567    1.000
    Si5281   Si       0.78537    0.62790    0.15335    1.000
    N5282    N        0.82829    0.63131    0.16240    1.000
    N5283    N        0.81535    0.61624    0.22787    1.000
    Si5284   Si       0.85647    0.59790    0.16626    1.000
    Si5285   Si       0.92798    0.60994    0.20239    1.000
    Si5286   Si       0.98139    0.62667    0.17626    1.000
    N5287    N        0.95021    0.64712    0.19800    1.000
    N5288    N        0.88513    0.60409    0.19751    1.000
    Si5289   Si       0.79427    0.61670    0.26530    1.000
    N5290    N        0.78645    0.60911    0.34474    1.000
    N5291    N        0.85685    0.63198    0.31994    1.000
    N5292    N        0.75456    0.60142    0.27171    1.000
    N5293    N        0.79965    0.65197    0.29249    1.000
    Si5294   Si       0.78045    0.65242    0.33342    1.000
    Si5295   Si       0.82815    0.60045    0.32749    1.000
    N5296    N        0.95983    0.63059    0.28702    1.000
    Si5297   Si       0.88607    0.64495    0.34847    1.000
    N5298    N        0.98342    0.65591    0.35094    1.000
    N5299    N        0.76170    0.62231    0.40520    1.000
    Si5300   Si       0.78180    0.63207    0.44214    1.000
    Si5301   Si       0.85466    0.63035    0.45684    1.000
    N5302    N        0.82109    0.65243    0.44205    1.000
    N5303    N        0.85646    0.62890    0.49952    1.000
    N5304    N        0.75599    0.65569    0.46818    1.000
    Si5305   Si       0.99332    0.64476    0.48429    1.000
    N5306    N        0.89372    0.64632    0.43573    1.000
    N5307    N        0.96868    0.62757    0.42415    1.000
    N5308    N        0.90223    0.61334    0.37629    1.000
    N5309    N        0.96938    0.60633    0.48791    1.000
    Si5310   Si       0.89777    0.60388    0.42152    1.000
    N5311    N        0.75976    0.63189    0.54380    1.000
    N5312    N        0.82143    0.62567    0.60032    1.000
    Si5313   Si       0.80218    0.63074    0.55839    1.000
    N5314    N        0.75419    0.61264    0.61341    1.000
    Si5315   Si       0.85670    0.59877    0.52885    1.000
    Si5316   Si       0.73842    0.63767    0.50601    1.000
    Si5317   Si       0.74090    0.64020    0.58318    1.000
    Si5318   Si       0.86517    0.62024    0.60248    1.000
    Si5319   Si       0.97324    0.60640    0.53408    1.000
    N5320    N        0.95016    0.63699    0.55759    1.000
    N5321    N        0.88288    0.60906    0.56372    1.000
    Si5322   Si       0.90955    0.64625    0.56429    1.000
    N5323    N        0.89848    0.64984    0.60577    1.000
    Si5324   Si       0.79229    0.62022    0.63322    1.000
    Si5325   Si       0.84237    0.61676    0.73470    1.000
    N5326    N        0.76401    0.63399    0.72270    1.000
    N5327    N        0.83093    0.65408    0.71532    1.000
    N5328    N        0.79268    0.65797    0.65665    1.000
    N5329    N        0.87764    0.60305    0.71257    1.000
    Si5330   Si       0.97445    0.65034    0.73490    1.000
    Si5331   Si       0.91151    0.62927    0.70881    1.000
    N5332    N        0.94667    0.61611    0.72924    1.000
    N5333    N        0.92180    0.62677    0.66551    1.000
    N5334    N        0.75595    0.62888    0.84103    1.000
    Si5335   Si       0.77909    0.61589    0.80520    1.000
    N5336    N        0.85610    0.62408    0.77626    1.000
    Si5337   Si       0.74109    0.65411    0.75381    1.000
    Si5338   Si       0.86868    0.65252    0.80872    1.000
    N5339    N        0.87685    0.61593    0.83536    1.000
    N5340    N        0.80326    0.61675    0.95327    1.000
    Si5341   Si       0.76642    0.61663    0.88239    1.000
    Si5342   Si       0.75945    0.60741    0.95322    1.000
    N5343    N        0.85794    0.63826    0.90142    1.000
    Si5344   Si       0.82920    0.60883    0.91698    1.000
    Si5345   Si       0.82152    0.64603    0.98117    1.000
    N5346    N        0.74693    0.60893    0.99781    1.000
    Si5347   Si       0.93499    0.60009    0.91360    1.000
    Si5348   Si       0.89150    0.62776    0.87562    1.000
    N5349    N        0.98829    0.63087    0.96532    1.000
    N5350    N        0.92785    0.63892    0.89608    1.000
    Si5351   Si       0.94751    0.63338    0.97910    1.000
    N5352    N        0.92871    0.60077    0.95649    1.000
    N5353    N        0.82803    0.69763    0.06223    1.000
    Si5354   Si       0.78672    0.67941    0.05309    1.000
    N5355    N        0.77460    0.69865    0.09651    1.000
    N5356    N        0.79298    0.65985    0.01314    1.000
    Si5357   Si       0.85994    0.70789    0.03675    1.000
    N5358    N        0.89316    0.67958    0.04137    1.000
    N5359    N        0.95775    0.69318    0.03255    1.000
    Si5360   Si       0.93128    0.66132    0.04779    1.000
    N5361    N        0.94318    0.66529    0.09245    1.000
    Si5362   Si       0.91259    0.68543    0.11593    1.000
    N5363    N        0.87768    0.66079    0.12140    1.000
    Si5364   Si       0.98745    0.66242    0.10385    1.000
    N5365    N        0.81870    0.69975    0.13814    1.000
    Si5366   Si       0.77216    0.70045    0.14284    1.000
    Si5367   Si       0.84875    0.66939    0.15224    1.000
    N5368    N        0.80568    0.68185    0.21713    1.000
    N5369    N        0.76119    0.66229    0.16237    1.000
    Si5370   Si       0.77705    0.71251    0.21965    1.000
    N5371    N        0.74323    0.68976    0.22799    1.000
    N5372    N        0.86706    0.67588    0.19126    1.000
    N5373    N        0.92920    0.69866    0.15665    1.000
    N5374    N        0.92323    0.70457    0.22647    1.000
    Si5375   Si       0.94914    0.68847    0.19608    1.000
    N5376    N        0.98871    0.70604    0.19812    1.000
    Si5377   Si       0.88294    0.69196    0.22798    1.000
    N5378    N        0.79675    0.68420    0.35707    1.000
    N5379    N        0.84765    0.70178    0.30588    1.000
    Si5380   Si       0.83720    0.70252    0.34926    1.000
    Si5381   Si       0.84260    0.66082    0.29121    1.000
    N5382    N        0.86269    0.66107    0.25221    1.000
    N5383    N        0.86357    0.67628    0.37071    1.000
    N5384    N        0.91869    0.66793    0.32844    1.000
    N5385    N        0.96262    0.70284    0.30318    1.000
    Si5386   Si       0.95907    0.66144    0.31548    1.000
    Si5387   Si       0.92158    0.71167    0.31886    1.000
    Si5388   Si       0.77367    0.70518    0.38890    1.000
    N5389    N        0.84486    0.69535    0.48732    1.000
    Si5390   Si       0.82755    0.69698    0.44783    1.000
    N5391    N        0.74066    0.68116    0.40726    1.000
    N5392    N        0.92913    0.68773    0.40790    1.000
    N5393    N        0.96449    0.67703    0.46878    1.000
    Si5394   Si       0.88411    0.68192    0.40763    1.000
    Si5395   Si       0.98557    0.71389    0.47801    1.000
    Si5396   Si       0.94008    0.65797    0.43686    1.000
    N5397    N        0.76358    0.67439    0.59445    1.000
    N5398    N        0.82788    0.70193    0.60738    1.000
    Si5399   Si       0.85539    0.66947    0.51891    1.000
    N5400    N        0.82130    0.66569    0.54597    1.000
    Si5401   Si       0.82017    0.70737    0.56347    1.000
    Si5402   Si       0.75402    0.71524    0.58605    1.000
    N5403    N        0.89071    0.67705    0.54173    1.000
    N5404    N        0.95324    0.70341    0.57138    1.000
    Si5405   Si       0.97967    0.67141    0.55597    1.000
    Si5406   Si       0.79022    0.68957    0.62709    1.000
    N5407    N        0.77713    0.70521    0.70899    1.000
    Si5408   Si       0.79049    0.66180    0.69986    1.000
    Si5409   Si       0.86280    0.71379    0.62864    1.000
    Si5410   Si       0.86370    0.68270    0.70317    1.000
    N5411    N        0.97326    0.68570    0.70876    1.000
    N5412    N        0.87804    0.68634    0.66173    1.000
    Si5413   Si       0.91235    0.66491    0.64435    1.000
    N5414    N        0.94793    0.68944    0.64054    1.000
    N5415    N        0.90311    0.66951    0.72422    1.000
    Si5416   Si       0.98351    0.69397    0.66789    1.000
    N5417    N        0.77643    0.69708    0.83753    1.000
    Si5418   Si       0.80054    0.68768    0.79963    1.000
    Si5419   Si       0.80644    0.67792    0.86085    1.000
    Si5420   Si       0.74546    0.66659    0.82338    1.000
    N5421    N        0.82948    0.66596    0.82244    1.000
    N5422    N        0.76860    0.65892    0.78781    1.000
    Si5423   Si       0.98243    0.66634    0.81416    1.000
    Si5424   Si       0.91128    0.70201    0.83177    1.000
    N5425    N        0.95219    0.68204    0.84140    1.000
    N5426    N        0.89681    0.68297    0.79349    1.000
    Si5427   Si       0.92366    0.68449    0.75992    1.000
    N5428    N        0.96316    0.67013    0.77476    1.000
    N5429    N        0.89116    0.67622    0.86117    1.000
    Si5430   Si       0.78471    0.67361    0.93132    1.000
    N5431    N        0.82197    0.68100    0.95556    1.000
    N5432    N        0.83109    0.70420    0.88313    1.000
    Si5433   Si       0.86653    0.68106    0.89585    1.000
    N5434    N        0.78930    0.65322    0.89405    1.000
    N5435    N        0.75133    0.65373    0.95128    1.000
    Si5436   Si       0.91844    0.70688    0.94536    1.000
    Si5437   Si       0.94771    0.67477    0.88396    1.000
    Si5438   Si       0.96062    0.70569    0.99017    1.000
    N5439    N        0.98605    0.66681    0.90405    1.000
    N5440    N        0.93399    0.67288    0.96886    1.000
    N5441    N        0.87822    0.70071    0.93258    1.000
    N5442    N        0.93780    0.71188    0.90624    1.000
    N5443    N        0.81320    0.75932    0.08924    1.000
    Si5444   Si       0.74814    0.75161    0.01562    1.000
    Si5445   Si       0.86427    0.76717    0.00899    1.000
    N5446    N        0.76148    0.71666    0.03769    1.000
    Si5447   Si       0.81494    0.71581    0.09816    1.000
    Si5448   Si       0.74219    0.71982    0.07909    1.000
    N5449    N        0.85208    0.72505    0.99694    1.000
    N5450    N        0.93878    0.77433    0.05611    1.000
    N5451    N        0.87824    0.74772    0.04660    1.000
    Si5452   Si       0.90308    0.75873    0.07905    1.000
    N5453    N        0.91017    0.72763    0.10662    1.000
    N5454    N        0.77431    0.73062    0.17931    1.000
    N5455    N        0.86128    0.72946    0.23693    1.000
    Si5456   Si       0.74449    0.76078    0.16698    1.000
    N5457    N        0.88020    0.75573    0.16608    1.000
    N5458    N        0.94783    0.76794    0.16016    1.000
    Si5459   Si       0.86862    0.76045    0.20742    1.000
    N5460    N        0.90893    0.77182    0.22286    1.000
    Si5461   Si       0.91709    0.73909    0.15009    1.000
    N5462    N        0.84521    0.74718    0.34884    1.000
    Si5463   Si       0.75460    0.75329    0.28277    1.000
    N5464    N        0.77958    0.76361    0.31706    1.000
    N5465    N        0.83890    0.77138    0.28314    1.000
    N5466    N        0.74704    0.72826    0.36450    1.000
    Si5467   Si       0.75138    0.76868    0.34834    1.000
    N5468    N        0.78348    0.74355    0.24990    1.000
    Si5469   Si       0.86225    0.73518    0.28116    1.000
    N5470    N        0.91117    0.73425    0.35603    1.000
    N5471    N        0.90487    0.73516    0.28626    1.000
    Si5472   Si       0.88211    0.76619    0.36393    1.000
    N5473    N        0.97232    0.74667    0.25182    1.000
    Si5474   Si       0.92833    0.74132    0.24873    1.000
    N5475    N        0.97941    0.72312    0.37133    1.000
    Si5476   Si       0.79165    0.75366    0.45106    1.000
    N5477    N        0.78814    0.73877    0.49083    1.000
    N5478    N        0.83302    0.76843    0.45039    1.000
    N5479    N        0.79558    0.71680    0.42700    1.000
    Si5480   Si       0.94576    0.77614    0.45337    1.000
    Si5481   Si       0.87342    0.75173    0.44290    1.000
    N5482    N        0.90298    0.76871    0.46806    1.000
    Si5483   Si       0.93934    0.72322    0.38668    1.000
    N5484    N        0.97183    0.75486    0.47889    1.000
    N5485    N        0.94308    0.75345    0.41637    1.000
    N5486    N        0.86474    0.71131    0.42867    1.000
    N5487    N        0.85354    0.73454    0.55123    1.000
    Si5488   Si       0.77878    0.75850    0.52695    1.000
    N5489    N        0.78421    0.73018    0.55968    1.000
    Si5490   Si       0.96176    0.73382    0.54153    1.000
    N5491    N        0.91863    0.74297    0.53396    1.000
    N5492    N        0.95895    0.75972    0.61194    1.000
    Si5493   Si       0.94191    0.71793    0.60930    1.000
    N5494    N        0.89822    0.72233    0.60264    1.000
    N5495    N        0.97938    0.77157    0.54778    1.000
    Si5496   Si       0.89145    0.71738    0.55919    1.000
    N5497    N        0.76691    0.72752    0.62590    1.000
    N5498    N        0.79201    0.77002    0.73606    1.000
    N5499    N        0.85307    0.74840    0.64966    1.000
    N5500    N        0.85013    0.72282    0.71052    1.000
    Si5501   Si       0.81005    0.72889    0.72798    1.000
    Si5502   Si       0.74118    0.74776    0.65216    1.000
    Si5503   Si       0.94818    0.77491    0.69247    1.000
    Si5504   Si       0.87371    0.75232    0.68738    1.000
    N5505    N        0.98539    0.75169    0.70016    1.000
    N5506    N        0.91420    0.75875    0.67073    1.000
    Si5507   Si       0.97570    0.72179    0.73222    1.000
    Si5508   Si       0.76414    0.73899    0.84501    1.000
    N5509    N        0.77139    0.76083    0.80825    1.000
    Si5510   Si       0.80276    0.76061    0.77816    1.000
    N5511    N        0.79191    0.76146    0.87075    1.000
    N5512    N        0.81262    0.71793    0.77166    1.000
    N5513    N        0.88898    0.73840    0.83053    1.000
    Si5514   Si       0.93944    0.76565    0.76684    1.000
    N5515    N        0.96958    0.76883    0.79414    1.000
    N5516    N        0.93668    0.72552    0.74956    1.000
    N5517    N        0.94621    0.77154    0.86540    1.000
    Si5518   Si       0.74346    0.73758    0.93667    1.000
    N5519    N        0.83295    0.75569    0.93277    1.000
    Si5520   Si       0.81084    0.73761    0.90110    1.000
    N5521    N        0.76025    0.74475    0.97441    1.000
    Si5522   Si       0.84514    0.71667    0.95462    1.000
    N5523    N        0.77578    0.71633    0.91777    1.000
    N5524    N        0.93459    0.73525    0.97662    1.000
    Si5525   Si       0.95679    0.74954    0.90063    1.000
    N5526    N        0.80122    0.81912    0.08414    1.000
    N5527    N        0.83537    0.79457    0.02247    1.000
    Si5528   Si       0.80626    0.78631    0.05460    1.000
    N5529    N        0.76755    0.78663    0.03511    1.000
    Si5530   Si       0.80780    0.79172    0.11654    1.000
    N5531    N        0.89422    0.79295    0.10783    1.000
    N5532    N        0.96074    0.81789    0.10882    1.000
    Si5533   Si       0.94043    0.81130    0.03254    1.000
    Si5534   Si       0.91941    0.82746    0.09955    1.000
    N5535    N        0.98348    0.81685    0.03987    1.000
    N5536    N        0.91621    0.83507    0.05762    1.000
    Si5537   Si       0.98243    0.77566    0.05818    1.000
    N5538    N        0.77411    0.79058    0.14278    1.000
    N5539    N        0.83675    0.80857    0.14455    1.000
    Si5540   Si       0.79776    0.79706    0.18236    1.000
    N5541    N        0.75901    0.78671    0.20050    1.000
    N5542    N        0.82958    0.78190    0.20803    1.000
    Si5543   Si       0.74138    0.82020    0.13417    1.000
    Si5544   Si       0.93244    0.79311    0.19370    1.000
    Si5545   Si       0.87681    0.79391    0.14794    1.000
    N5546    N        0.96413    0.81273    0.21941    1.000
    Si5547   Si       0.97552    0.78474    0.13226    1.000
    N5548    N        0.90676    0.81765    0.16911    1.000
    N5549    N        0.83113    0.81601    0.33546    1.000
    N5550    N        0.79375    0.81501    0.26227    1.000
    Si5551   Si       0.81074    0.77789    0.24844    1.000
    Si5552   Si       0.80473    0.82832    0.36564    1.000
    Si5553   Si       0.82325    0.77584    0.32308    1.000
    Si5554   Si       0.92557    0.82637    0.36218    1.000
    Si5555   Si       0.97952    0.79206    0.25465    1.000
    N5556    N        0.89379    0.80387    0.34522    1.000
    N5557    N        0.95118    0.80324    0.28556    1.000
    Si5558   Si       0.97534    0.79756    0.32437    1.000
    N5559    N        0.95691    0.79710    0.36268    1.000
    N5560    N        0.77173    0.79994    0.37329    1.000
    Si5561   Si       0.75042    0.80872    0.40880    1.000
    Si5562   Si       0.84713    0.80288    0.42896    1.000
    N5563    N        0.76078    0.77904    0.43819    1.000
    Si5564   Si       0.97390    0.77871    0.39857    1.000
    N5565    N        0.96867    0.80768    0.43258    1.000
    N5566    N        0.87555    0.77811    0.40661    1.000
    N5567    N        0.80407    0.79125    0.53974    1.000
    N5568    N        0.85082    0.79496    0.59155    1.000
    Si5569   Si       0.84360    0.77799    0.55141    1.000
    N5570    N        0.86970    0.79724    0.52129    1.000
    Si5571   Si       0.87377    0.82564    0.61095    1.000
    Si5572   Si       0.97951    0.78858    0.50818    1.000
    N5573    N        0.94084    0.80808    0.50985    1.000
    N5574    N        0.91532    0.81264    0.61271    1.000
    N5575    N        0.98644    0.82427    0.59144    1.000
    Si5576   Si       0.90582    0.77773    0.51063    1.000
    Si5577   Si       0.98922    0.78169    0.58810    1.000
    Si5578   Si       0.75653    0.78790    0.71664    1.000
    N5579    N        0.75790    0.77993    0.67408    1.000
    N5580    N        0.74296    0.83020    0.71734    1.000
    Si5581   Si       0.86415    0.83198    0.69406    1.000
    Si5582   Si       0.93105    0.78211    0.63690    1.000
    Si5583   Si       0.96596    0.82840    0.73284    1.000
    Si5584   Si       0.89780    0.80168    0.73863    1.000
    N5585    N        0.94053    0.79263    0.73000    1.000
    N5586    N        0.95727    0.80520    0.66521    1.000
    N5587    N        0.86685    0.78959    0.70949    1.000
    N5588    N        0.78007    0.82201    0.78841    1.000
    Si5589   Si       0.82187    0.82163    0.80119    1.000
    N5590    N        0.82424    0.82075    0.84661    1.000
    N5591    N        0.75139    0.81299    0.84811    1.000
    Si5592   Si       0.74896    0.79941    0.80698    1.000
    Si5593   Si       0.78945    0.80564    0.86606    1.000
    N5594    N        0.83595    0.78225    0.79533    1.000
    Si5595   Si       0.86378    0.82536    0.86559    1.000
    N5596    N        0.89064    0.81180    0.83438    1.000
    Si5597   Si       0.97566    0.78050    0.83388    1.000
    N5598    N        0.98211    0.82269    0.83358    1.000
    N5599    N        0.90087    0.78077    0.77677    1.000
    Si5600   Si       0.87821    0.77643    0.81271    1.000
    N5601    N        0.78714    0.81888    0.90628    1.000
    Si5602   Si       0.85778    0.79279    0.93719    1.000
    Si5603   Si       0.74913    0.81272    0.92478    1.000
    N5604    N        0.75028    0.81990    0.96730    1.000
    Si5605   Si       0.92736    0.77755    0.96769    1.000
    N5606    N        0.87786    0.79917    0.89804    1.000
    N5607    N        0.93864    0.77917    0.92626    1.000
    Si5608   Si       0.92190    0.79898    0.89080    1.000
    N5609    N        0.88408    0.78511    0.97307    1.000
    N5610    N        0.94895    0.80865    0.99015    1.000
    Si5611   Si       0.99133    0.82690    0.99526    1.000
    Si5612   Si       0.81128    0.86135    0.08239    1.000
    N5613    N        0.84588    0.85969    0.05544    1.000
    N5614    N        0.79902    0.85923    0.00888    1.000
    Si5615   Si       0.83556    0.83770    0.01849    1.000
    Si5616   Si       0.88680    0.86234    0.04015    1.000
    N5617    N        0.97028    0.88304    0.08213    1.000
    N5618    N        0.87320    0.85014    0.00070    1.000
    N5619    N        0.91322    0.86830    0.12235    1.000
    Si5620   Si       0.98901    0.84881    0.09833    1.000
    N5621    N        0.82473    0.87376    0.12240    1.000
    N5622    N        0.79985    0.84226    0.18441    1.000
    Si5623   Si       0.76203    0.86084    0.19474    1.000
    Si5624   Si       0.83309    0.84806    0.15777    1.000
    N5625    N        0.74231    0.84258    0.22857    1.000
    N5626    N        0.86624    0.87049    0.17667    1.000
    N5627    N        0.93783    0.87607    0.19185    1.000
    Si5628   Si       0.96659    0.85647    0.21811    1.000
    Si5629   Si       0.90712    0.86100    0.16553    1.000
    N5630    N        0.78918    0.86561    0.34840    1.000
    N5631    N        0.78227    0.88215    0.27424    1.000
    Si5632   Si       0.76235    0.84434    0.26852    1.000
    Si5633   Si       0.86460    0.88309    0.26971    1.000
    Si5634   Si       0.87029    0.83515    0.32689    1.000
    N5635    N        0.87794    0.87031    0.35366    1.000
    N5636    N        0.88653    0.84489    0.28808    1.000
    N5637    N        0.94397    0.85279    0.33006    1.000
    N5638    N        0.95292    0.86890    0.25952    1.000
    Si5639   Si       0.93216    0.84278    0.28725    1.000
    Si5640   Si       0.98388    0.86488    0.34290    1.000
    Si5641   Si       0.83325    0.86032    0.43649    1.000
    Si5642   Si       0.75546    0.86718    0.46696    1.000
    N5643    N        0.80174    0.88029    0.45714    1.000
    N5644    N        0.74255    0.84585    0.42910    1.000
    N5645    N        0.85617    0.83255    0.46053    1.000
    N5646    N        0.82501    0.83272    0.40461    1.000
    Si5647   Si       0.89336    0.87795    0.39618    1.000
    Si5648   Si       0.96417    0.84783    0.42030    1.000
    N5649    N        0.97261    0.86973    0.45618    1.000
    N5650    N        0.92144    0.84716    0.40081    1.000
    N5651    N        0.97670    0.87458    0.38449    1.000
    N5652    N        0.82755    0.85716    0.52342    1.000
    Si5653   Si       0.82882    0.86932    0.57182    1.000
    N5654    N        0.79010    0.84951    0.57284    1.000
    Si5655   Si       0.76949    0.85795    0.61049    1.000
    N5656    N        0.76624    0.83838    0.49820    1.000
    Si5657   Si       0.79204    0.83259    0.53318    1.000
    N5658    N        0.74157    0.89028    0.62085    1.000
    N5659    N        0.81383    0.88156    0.62372    1.000
    Si5660   Si       0.86511    0.83795    0.50465    1.000
    N5661    N        0.86880    0.85686    0.58293    1.000
    Si5662   Si       0.93856    0.84800    0.52647    1.000
    N5663    N        0.97484    0.86926    0.52013    1.000
    N5664    N        0.93828    0.86987    0.56899    1.000
    Si5665   Si       0.94738    0.84110    0.59978    1.000
    N5666    N        0.90011    0.86244    0.51199    1.000
    Si5667   Si       0.89941    0.88779    0.57561    1.000
    N5668    N        0.77321    0.84069    0.65195    1.000
    Si5669   Si       0.74409    0.85615    0.68275    1.000
    N5670    N        0.83014    0.85715    0.70005    1.000
    Si5671   Si       0.81823    0.85317    0.65609    1.000
    Si5672   Si       0.82797    0.87474    0.73847    1.000
    N5673    N        0.85803    0.83148    0.65046    1.000
    N5674    N        0.89065    0.84318    0.72862    1.000
    N5675    N        0.95345    0.85690    0.70447    1.000
    Si5676   Si       0.97147    0.84644    0.66610    1.000
    N5677    N        0.95304    0.86756    0.63335    1.000
    Si5678   Si       0.77164    0.86527    0.78100    1.000
    N5679    N        0.83161    0.85773    0.78043    1.000
    N5680    N        0.76810    0.88200    0.82163    1.000
    N5681    N        0.78608    0.88528    0.74666    1.000
    Si5682   Si       0.85518    0.89194    0.79170    1.000
    N5683    N        0.94738    0.87493    0.83082    1.000
    N5684    N        0.89272    0.87118    0.79334    1.000
    N5685    N        0.95251    0.84990    0.76865    1.000
    Si5686   Si       0.97687    0.85423    0.80518    1.000
    Si5687   Si       0.91468    0.86841    0.75561    1.000
    Si5688   Si       0.90781    0.85481    0.83061    1.000
    N5689    N        0.88303    0.86520    0.86652    1.000
    N5690    N        0.81376    0.88158    0.88379    1.000
    N5691    N        0.77263    0.87705    0.94151    1.000
    Si5692   Si       0.76324    0.85778    0.98293    1.000
    Si5693   Si       0.80701    0.85444    0.91910    1.000
    Si5694   Si       0.86322    0.86427    0.96250    1.000
    N5695    N        0.84014    0.83442    0.94083    1.000
    Si5696   Si       0.91588    0.87271    0.89911    1.000
    N5697    N        0.94193    0.83787    0.88958    1.000
    N5698    N        0.89561    0.87749    0.93659    1.000
    Si5699   Si       0.98393    0.83878    0.87508    1.000
    Si5700   Si       0.77267    0.93260    0.08144    1.000
    N5701    N        0.83602    0.93631    0.02651    1.000
    N5702    N        0.80072    0.94161    0.11191    1.000
    Si5703   Si       0.80779    0.90071    0.02439    1.000
    N5704    N        0.79053    0.89555    0.06418    1.000
    N5705    N        0.86713    0.93328    0.11293    1.000
    N5706    N        0.96089    0.93378    0.04115    1.000
    Si5707   Si       0.91828    0.93282    0.03229    1.000
    N5708    N        0.93408    0.93847    0.10847    1.000
    N5709    N        0.90522    0.89862    0.05633    1.000
    Si5710   Si       0.92964    0.89707    0.09258    1.000
    Si5711   Si       0.99230    0.91823    0.06869    1.000
    Si5712   Si       0.79756    0.90627    0.24225    1.000
    N5713    N        0.83959    0.89737    0.23726    1.000
    Si5714   Si       0.83271    0.91617    0.12775    1.000
    Si5715   Si       0.85690    0.90692    0.19724    1.000
    Si5716   Si       0.75129    0.93901    0.19579    1.000
    N5717    N        0.77144    0.90240    0.20669    1.000
    N5718    N        0.82916    0.92792    0.16991    1.000
    N5719    N        0.89163    0.93194    0.19763    1.000
    N5720    N        0.95155    0.93626    0.23225    1.000
    N5721    N        0.96821    0.92729    0.16662    1.000
    Si5722   Si       0.93552    0.91926    0.19512    1.000
    N5723    N        0.77710    0.92495    0.32322    1.000
    Si5724   Si       0.75772    0.94195    0.28969    1.000
    Si5725   Si       0.78752    0.93600    0.36302    1.000
    Si5726   Si       0.86236    0.90914    0.34204    1.000
    N5727    N        0.78719    0.94826    0.25664    1.000
    N5728    N        0.83129    0.92822    0.36614    1.000
    N5729    N        0.84080    0.89418    0.30498    1.000
    Si5730   Si       0.79986    0.88797    0.31420    1.000
    N5731    N        0.89828    0.90858    0.27383    1.000
    Si5732   Si       0.94000    0.91026    0.26638    1.000
    N5733    N        0.95512    0.93962    0.29522    1.000
    N5734    N        0.89008    0.94156    0.33089    1.000
    Si5735   Si       0.98324    0.93847    0.32809    1.000
    N5736    N        0.96007    0.94654    0.36289    1.000
    N5737    N        0.85599    0.91131    0.48871    1.000
    Si5738   Si       0.78542    0.92091    0.43896    1.000
    N5739    N        0.76741    0.91944    0.39918    1.000
    Si5740   Si       0.85900    0.92704    0.44729    1.000
    N5741    N        0.75094    0.91635    0.46570    1.000
    N5742    N        0.82029    0.94520    0.44423    1.000
    N5743    N        0.86274    0.89072    0.42463    1.000
    Si5744   Si       0.81613    0.89085    0.49737    1.000
    N5745    N        0.97060    0.93037    0.42916    1.000
    N5746    N        0.91336    0.91595    0.38748    1.000
    Si5747   Si       0.96241    0.91058    0.46739    1.000
    N5748    N        0.92570    0.92334    0.48460    1.000
    Si5749   Si       0.95666    0.91281    0.39299    1.000
    N5750    N        0.83642    0.91317    0.57123    1.000
    N5751    N        0.79097    0.91858    0.52024    1.000
    Si5752   Si       0.75092    0.93233    0.50683    1.000
    Si5753   Si       0.80711    0.94014    0.55182    1.000
    N5754    N        0.78131    0.93657    0.58685    1.000
    Si5755   Si       0.81372    0.92306    0.61505    1.000
    Si5756   Si       0.87027    0.93890    0.58425    1.000
    N5757    N        0.89523    0.92174    0.54783    1.000
    N5758    N        0.89761    0.91475    0.61127    1.000
    Si5759   Si       0.89316    0.90506    0.50821    1.000
    N5760    N        0.95971    0.94301    0.55145    1.000
    Si5761   Si       0.97150    0.90057    0.55117    1.000
    Si5762   Si       0.76346    0.91495    0.72549    1.000
    Si5763   Si       0.75422    0.92054    0.64859    1.000
    N5764    N        0.79532    0.93478    0.65499    1.000
    N5765    N        0.74632    0.90211    0.68850    1.000
    N5766    N        0.85777    0.93947    0.68792    1.000
    N5767    N        0.79260    0.94888    0.72281    1.000
    Si5768   Si       0.88215    0.92633    0.72168    1.000
    Si5769   Si       0.94448    0.90046    0.70280    1.000
    N5770    N        0.92045    0.90739    0.73756    1.000
    N5771    N        0.96486    0.93862    0.62926    1.000
    Si5772   Si       0.93431    0.90787    0.63444    1.000
    Si5773   Si       0.88319    0.94059    0.65244    1.000
    N5774    N        0.91523    0.91597    0.67346    1.000
    N5775    N        0.98387    0.91854    0.70124    1.000
    N5776    N        0.84295    0.91087    0.82730    1.000
    Si5777   Si       0.78425    0.90116    0.85909    1.000
    N5778    N        0.85341    0.90873    0.74988    1.000
    N5779    N        0.79331    0.94572    0.85512    1.000
    N5780    N        0.97478    0.94166    0.84114    1.000
    Si5781   Si       0.96540    0.90345    0.85896    1.000
    N5782    N        0.91778    0.94796    0.80253    1.000
    Si5783   Si       0.92840    0.94388    0.76193    1.000
    Si5784   Si       0.85175    0.89577    0.86921    1.000
    N5785    N        0.74721    0.90979    0.88147    1.000
    Si5786   Si       0.85384    0.93510    0.98578    1.000
    N5787    N        0.85697    0.93690    0.88205    1.000
    Si5788   Si       0.79425    0.91296    0.95433    1.000
    N5789    N        0.83716    0.89879    0.96533    1.000
    N5790    N        0.78266    0.94778    0.93213    1.000
    N5791    N        0.78186    0.91956    0.99413    1.000
    N5792    N        0.90216    0.94586    0.93379    1.000
    Si5793   Si       0.93394    0.95224    0.90423    1.000
    N5794    N        0.95065    0.89551    0.97072    1.000
    Si5795   Si       0.91319    0.91047    0.95860    1.000
    N5796    N        0.93690    0.91053    0.89074    1.000
    N5797    N        0.89577    0.92346    0.99534    1.000
    N5798    N        0.82703    0.99382    0.07508    1.000
    Si5799   Si       0.80808    0.98490    0.11503    1.000
    Si5800   Si       0.85321    0.97179    0.04521    1.000
    Si5801   Si       0.74849    0.99674    0.07429    1.000
    Si5802   Si       0.76526    0.95811    0.00628    1.000
    N5803    N        0.76078    0.96106    0.04993    1.000
    N5804    N        0.76695    0.99542    0.11604    1.000
    N5805    N        0.86696    0.00409    0.01834    1.000
    N5806    N        0.89632    0.96532    0.05702    1.000
    Si5807   Si       0.97260    0.97023    0.02045    1.000
    Si5808   Si       0.89806    0.96074    0.09956    1.000
    Si5809   Si       0.90838    0.99924    0.03338    1.000
    N5810    N        0.93478    0.98462    0.00545    1.000
    N5811    N        0.89237    0.00092    0.11396    1.000
    Si5812   Si       0.81905    0.96849    0.18236    1.000
    N5813    N        0.77569    0.97478    0.18348    1.000
    N5814    N        0.83269    0.99357    0.15026    1.000
    N5815    N        0.84271    0.97554    0.21832    1.000
    Si5816   Si       0.75308    0.00221    0.15725    1.000
    Si5817   Si       0.96673    0.95461    0.13246    1.000
    N5818    N        0.90192    0.99661    0.18390    1.000
    Si5819   Si       0.88635    0.97160    0.21533    1.000
    N5820    N        0.96884    0.99515    0.14831    1.000
    Si5821   Si       0.87271    0.01068    0.15250    1.000
    N5822    N        0.84897    0.97464    0.28690    1.000
    Si5823   Si       0.81951    0.97656    0.25462    1.000
    N5824    N        0.77405    0.97677    0.36789    1.000
    Si5825   Si       0.75578    0.98659    0.24782    1.000
    Si5826   Si       0.95641    0.96950    0.26141    1.000
    N5827    N        0.90734    0.97347    0.25554    1.000
    Si5828   Si       0.91863    0.95333    0.36283    1.000
    Si5829   Si       0.88435    0.94814    0.28843    1.000
    N5830    N        0.84257    0.00253    0.41316    1.000
    N5831    N        0.76737    0.98578    0.43723    1.000
    Si5832   Si       0.81230    0.98786    0.44173    1.000
    Si5833   Si       0.74536    0.97568    0.40006    1.000
    Si5834   Si       0.88501    0.99656    0.41724    1.000
    Si5835   Si       0.91681    0.96555    0.47570    1.000
    N5836    N        0.90636    0.99419    0.37711    1.000
    N5837    N        0.95482    0.98443    0.47322    1.000
    N5838    N        0.88846    0.96088    0.44204    1.000
    N5839    N        0.97736    0.00512    0.41454    1.000
    N5840    N        0.82551    0.97825    0.53910    1.000
    Si5841   Si       0.75416    0.96698    0.60014    1.000
    Si5842   Si       0.79198    0.99976    0.51486    1.000
    N5843    N        0.75805    0.97391    0.50168    1.000
    N5844    N        0.78446    0.99607    0.61959    1.000
    Si5845   Si       0.86545    0.99570    0.53759    1.000
    N5846    N        0.88591    0.97923    0.57492    1.000
    N5847    N        0.89762    0.97865    0.51218    1.000
    Si5848   Si       0.88822    0.00334    0.61194    1.000
    Si5849   Si       0.91863    0.95982    0.54725    1.000
    N5850    N        0.96616    0.00433    0.57925    1.000
    N5851    N        0.82067    0.99511    0.68202    1.000
    Si5852   Si       0.82237    0.98800    0.63815    1.000
    N5853    N        0.84756    0.95189    0.62378    1.000
    Si5854   Si       0.81774    0.95293    0.68867    1.000
    N5855    N        0.89783    0.96656    0.73714    1.000
    N5856    N        0.98870    0.00373    0.64432    1.000
    N5857    N        0.90867    0.97648    0.63903    1.000
    Si5858   Si       0.95341    0.97552    0.64939    1.000
    Si5859   Si       0.98461    0.95996    0.71586    1.000
    N5860    N        0.95497    0.98318    0.69332    1.000
    N5861    N        0.83018    0.98373    0.82022    1.000
    Si5862   Si       0.78686    0.97755    0.82657    1.000
    N5863    N        0.76719    0.96416    0.78918    1.000
    Si5864   Si       0.78327    0.98016    0.75089    1.000
    N5865    N        0.81755    0.00613    0.75536    1.000
    Si5866   Si       0.83669    0.94898    0.84508    1.000
    Si5867   Si       0.94153    0.96845    0.83284    1.000
    N5868    N        0.96968    0.95688    0.75656    1.000
    N5869    N        0.94872    0.01098    0.82109    1.000
    N5870    N        0.84179    0.96181    0.95506    1.000
    Si5871   Si       0.80661    0.98758    0.95109    1.000
    N5872    N        0.78249    0.99221    0.98736    1.000
    Si5873   Si       0.77565    0.96412    0.89258    1.000
    N5874    N        0.80176    0.00042    0.90689    1.000
    N5875    N        0.87094    0.00306    0.89954    1.000
    N5876    N        0.95995    0.96396    0.93705    1.000
    N5877    N        0.92557    0.97834    0.87100    1.000
    Si5878   Si       0.86367    0.96176    0.91698    1.000
    Si5879   Si       0.94186    0.99417    0.96349    1.000
