# CIF file generated by openbabel 3.1.1, see https://openbabel.org
data_I
_chemical_name_common '3.01-80.aims'
_cell_length_a 39.9918
_cell_length_b 39.9918
_cell_length_c 39.9918
_cell_angle_alpha 90
_cell_angle_beta 90
_cell_angle_gamma 90
loop_
    _atom_site_label
    _atom_site_type_symbol
    _atom_site_fract_x
    _atom_site_fract_y
    _atom_site_fract_z
    _atom_site_occupancy
    N0       N        0.01642    0.12193    0.00519    1.000
    N1       N        0.03389    0.12642    0.07961    1.000
    N2       N        0.04105    0.07094    0.03270    1.000
    Si3      Si       0.04466    0.11527    0.03909    1.000
    Si4      Si       0.01665    0.07903    0.99632    1.000
    Si5      Si       0.01134    0.22355    0.00876    1.000
    N6       N        0.00784    0.18636    0.09484    1.000
    Si7      Si       0.99592    0.14628    0.08868    1.000
    N8       N        0.03881    0.25037    0.08349    1.000
    Si9      Si       0.03861    0.20643    0.07333    1.000
    N10      N        0.99201    0.18624    0.99751    1.000
    N11      N        0.99273    0.11257    0.19223    1.000
    N12      N        0.02311    0.03886    0.19260    1.000
    Si13     Si       0.01420    0.04480    0.23586    1.000
    N14      N        0.03437    0.09204    0.14050    1.000
    Si15     Si       0.99374    0.09890    0.15090    1.000
    N16      N        0.99132    0.17522    0.22445    1.000
    N17      N        0.99763    0.24526    0.13638    1.000
    Si18     Si       0.01069    0.20416    0.13442    1.000
    Si19     Si       0.01519    0.15209    0.19572    1.000
    Si20     Si       0.04111    0.25346    0.12657    1.000
    N21      N        0.00096    0.17250    0.16148    1.000
    N22      N        0.00862    0.09765    0.31624    1.000
    Si23     Si       0.01438    0.10896    0.27261    1.000
    Si24     Si       0.01712    0.12599    0.35052    1.000
    N25      N        0.03518    0.07891    0.24841    1.000
    N26      N        0.99052    0.04870    0.36600    1.000
    Si27     Si       0.00169    0.00869    0.29858    1.000
    N28      N        0.01312    0.00592    0.25578    1.000
    N29      N        0.03978    0.14461    0.26555    1.000
    Si30     Si       0.01887    0.18374    0.25831    1.000
    N31      N        0.01151    0.19226    0.30012    1.000
    Si32     Si       0.01985    0.23786    0.36229    1.000
    Si33     Si       0.98946    0.11311    0.41982    1.000
    Si34     Si       0.02990    0.06215    0.37962    1.000
    N35      N        0.00508    0.08247    0.45147    1.000
    N36      N        0.02170    0.02317    0.47933    1.000
    N37      N        0.04113    0.03841    0.41233    1.000
    Si38     Si       0.01014    0.04049    0.44246    1.000
    N39      N        0.01924    0.10342    0.38930    1.000
    Si40     Si       0.01812    0.11881    0.47545    1.000
    N41      N        0.99024    0.14301    0.45285    1.000
    Si42     Si       0.02086    0.24133    0.47408    1.000
    N43      N        0.02316    0.19891    0.46434    1.000
    N44      N        0.02607    0.25267    0.40107    1.000
    Si45     Si       0.01402    0.04763    0.56676    1.000
    N46      N        0.02837    0.08798    0.57600    1.000
    N47      N        0.99827    0.03153    0.60364    1.000
    N48      N        0.01413    0.12630    0.51799    1.000
    Si49     Si       0.03170    0.09905    0.61763    1.000
    Si50     Si       0.04596    0.11116    0.54450    1.000
    Si51     Si       0.02721    0.22565    0.60911    1.000
    N52      N        0.01567    0.24316    0.51711    1.000
    N53      N        0.99423    0.22873    0.58234    1.000
    N54      N        0.01225    0.05754    0.69784    1.000
    Si55     Si       0.99570    0.09470    0.68318    1.000
    N56      N        0.99582    0.08903    0.64107    1.000
    Si57     Si       0.04297    0.02939    0.68866    1.000
    Si58     Si       0.04742    0.15524    0.70986    1.000
    N59      N        0.03612    0.14245    0.61906    1.000
    N60      N        0.02140    0.20137    0.64547    1.000
    Si61     Si       0.03040    0.22137    0.73552    1.000
    Si62     Si       0.00822    0.15797    0.64972    1.000
    N63      N        0.04467    0.24020    0.70043    1.000
    N64      N        0.02016    0.13154    0.68571    1.000
    N65      N        0.01741    0.18155    0.72803    1.000
    Si66     Si       0.01737    0.03223    0.78680    1.000
    Si67     Si       0.01444    0.10741    0.80760    1.000
    N68      N        0.04004    0.02416    0.82513    1.000
    N69      N        0.99613    0.06718    0.80435    1.000
    N70      N        0.01026    0.12508    0.76983    1.000
    N71      N        0.99975    0.13782    0.83752    1.000
    N72      N        0.02405    0.20464    0.85567    1.000
    Si73     Si       0.01718    0.17527    0.82378    1.000
    N74      N        0.99878    0.24286    0.75313    1.000
    N75      N        0.99324    0.18664    0.78983    1.000
    N76      N        0.03180    0.05672    0.96260    1.000
    N77      N        0.02727    0.10310    0.90034    1.000
    N78      N        0.04100    0.02896    0.90398    1.000
    Si79     Si       0.99756    0.12662    0.88126    1.000
    Si80     Si       0.04156    0.07009    0.92209    1.000
    Si81     Si       0.04398    0.01352    0.96420    1.000
    Si82     Si       0.00225    0.00975    0.90837    1.000
    Si83     Si       0.03808    0.25579    0.93526    1.000
    N84      N        0.02258    0.25479    0.98084    1.000
    N85      N        0.00456    0.22978    0.91985    1.000
    Si86     Si       0.01954    0.19486    0.89894    1.000
    Si87     Si       0.01007    0.27322    0.05945    1.000
    N88      N        0.03143    0.30112    0.03711    1.000
    Si89     Si       0.04434    0.37602    0.99685    1.000
    N90      N        0.02392    0.40796    0.01672    1.000
    N91      N        0.03218    0.47148    0.05576    1.000
    Si92     Si       0.99176    0.46333    0.07958    1.000
    N93      N        0.01919    0.47464    0.11711    1.000
    N94      N        0.99407    0.41966    0.07401    1.000
    Si95     Si       0.02178    0.34227    0.12405    1.000
    N96      N        0.02877    0.37251    0.15526    1.000
    N97      N        0.01647    0.33302    0.22198    1.000
    N98      N        0.00667    0.31001    0.14838    1.000
    Si99     Si       0.99109    0.32346    0.18823    1.000
    Si100    Si       0.02315    0.37189    0.24377    1.000
    Si101    Si       0.03941    0.43610    0.21318    1.000
    Si102    Si       0.99582    0.39069    0.17562    1.000
    N103     N        0.01546    0.40032    0.21237    1.000
    Si104    Si       0.99385    0.48068    0.20019    1.000
    N105     N        0.02081    0.45470    0.17747    1.000
    N106     N        0.01385    0.26763    0.33128    1.000
    N107     N        0.99569    0.37577    0.27565    1.000
    N108     N        0.99189    0.27922    0.25904    1.000
    Si109    Si       0.02972    0.30064    0.24618    1.000
    N110     N        0.04523    0.31391    0.28541    1.000
    Si111    Si       0.04629    0.43255    0.34584    1.000
    Si112    Si       0.01865    0.48930    0.35882    1.000
    N113     N        0.01260    0.40311    0.34166    1.000
    Si114    Si       0.02832    0.48379    0.28465    1.000
    N115     N        0.03620    0.46830    0.32325    1.000
    N116     N        0.03634    0.45659    0.25033    1.000
    N117     N        0.98876    0.50125    0.27917    1.000
    N118     N        0.00247    0.31288    0.41878    1.000
    Si119    Si       0.03509    0.32727    0.39630    1.000
    N120     N        0.03164    0.37055    0.40241    1.000
    Si121    Si       0.99056    0.27062    0.41792    1.000
    N122     N        0.99089    0.48355    0.43141    1.000
    N123     N        0.03739    0.45534    0.38432    1.000
    Si124    Si       0.04489    0.38837    0.43958    1.000
    N125     N        0.01354    0.40564    0.46605    1.000
    Si126    Si       0.99831    0.38986    0.38081    1.000
    Si127    Si       0.02881    0.29571    0.60220    1.000
    Si128    Si       0.00026    0.32278    0.53285    1.000
    N129     N        0.99823    0.30574    0.57359    1.000
    N130     N        0.03710    0.30998    0.51200    1.000
    Si131    Si       0.04661    0.27186    0.53206    1.000
    N132     N        0.03077    0.38379    0.58541    1.000
    N133     N        0.00108    0.42505    0.53801    1.000
    Si134    Si       0.02900    0.41074    0.50681    1.000
    Si135    Si       0.99364    0.39467    0.56781    1.000
    N136     N        0.02955    0.47920    0.61151    1.000
    Si137    Si       0.99784    0.44995    0.62173    1.000
    N138     N        0.03765    0.29999    0.69016    1.000
    Si139    Si       0.02473    0.33452    0.66956    1.000
    N140     N        0.03331    0.32953    0.62729    1.000
    N141     N        0.01997    0.26405    0.63259    1.000
    Si142    Si       0.01606    0.26524    0.67609    1.000
    N143     N        0.04540    0.36983    0.67465    1.000
    N144     N        0.00856    0.46745    0.74443    1.000
    N145     N        0.00216    0.50302    0.68183    1.000
    N146     N        0.02628    0.43452    0.65329    1.000
    Si147    Si       0.01242    0.50615    0.72517    1.000
    N148     N        0.99835    0.40669    0.71398    1.000
    Si149    Si       0.03195    0.41009    0.68688    1.000
    Si150    Si       0.02889    0.30350    0.82310    1.000
    Si151    Si       0.03510    0.36680    0.77377    1.000
    N152     N        0.99778    0.35371    0.75763    1.000
    N153     N        0.03170    0.31575    0.86688    1.000
    N154     N        0.00947    0.37965    0.84443    1.000
    Si155    Si       0.03751    0.35947    0.86750    1.000
    N156     N        0.04598    0.33358    0.79922    1.000
    Si157    Si       0.02348    0.41751    0.82793    1.000
    N158     N        0.03441    0.41130    0.78561    1.000
    Si159    Si       0.03913    0.45430    0.77127    1.000
    N160     N        0.04347    0.47740    0.80864    1.000
    N161     N        0.02831    0.30018    0.93248    1.000
    Si162    Si       0.02260    0.29800    0.99417    1.000
    N163     N        0.02100    0.34157    0.98406    1.000
    N164     N        0.02979    0.37224    0.90755    1.000
    Si165    Si       0.00014    0.30578    0.89733    1.000
    Si166    Si       0.98772    0.37290    0.91998    1.000
    N167     N        0.99744    0.50633    0.92118    1.000
    N168     N        0.01287    0.55239    0.02879    1.000
    N169     N        0.02145    0.62635    0.06911    1.000
    N170     N        0.02113    0.69930    0.06801    1.000
    Si171    Si       0.00510    0.66166    0.08386    1.000
    Si172    Si       0.03851    0.73254    0.01067    1.000
    N173     N        0.99655    0.73416    0.01850    1.000
    N174     N        0.99703    0.74119    0.11106    1.000
    Si175    Si       0.99266    0.73351    0.06467    1.000
    N176     N        0.01843    0.51480    0.21270    1.000
    Si177    Si       0.00824    0.58063    0.17019    1.000
    N178     N        0.02699    0.62057    0.17561    1.000
    N179     N        0.04056    0.55588    0.15838    1.000
    N180     N        0.98820    0.62024    0.23428    1.000
    Si181    Si       0.04129    0.70610    0.20230    1.000
    Si182    Si       0.99604    0.63769    0.15353    1.000
    N183     N        0.02228    0.68178    0.23186    1.000
    N184     N        0.00307    0.66896    0.12609    1.000
    N185     N        0.00673    0.71884    0.17693    1.000
    Si186    Si       0.01946    0.71079    0.13476    1.000
    N187     N        0.00169    0.56342    0.26443    1.000
    N188     N        0.03892    0.59605    0.35378    1.000
    Si189    Si       0.03087    0.53835    0.24756    1.000
    N190     N        0.02625    0.63747    0.29158    1.000
    Si191    Si       0.00434    0.71156    0.25746    1.000
    N192     N        0.99490    0.65171    0.35240    1.000
    N193     N        0.03199    0.70815    0.36225    1.000
    N194     N        0.03839    0.73448    0.26298    1.000
    Si195    Si       0.99267    0.65672    0.30966    1.000
    N196     N        0.99125    0.69745    0.29795    1.000
    Si197    Si       0.02283    0.63938    0.24872    1.000
    Si198    Si       0.00891    0.61826    0.37558    1.000
    Si199    Si       0.03129    0.55407    0.48636    1.000
    N200     N        0.01433    0.54709    0.44673    1.000
    N201     N        0.02774    0.52330    0.38131    1.000
    Si202    Si       0.02459    0.51274    0.42377    1.000
    N203     N        0.02533    0.62541    0.41719    1.000
    Si204    Si       0.02443    0.66505    0.43248    1.000
    Si205    Si       0.99351    0.69109    0.37059    1.000
    N206     N        0.99100    0.68638    0.41422    1.000
    N207     N        0.04434    0.74127    0.47514    1.000
    N208     N        0.02692    0.67005    0.47679    1.000
    Si209    Si       0.00375    0.58251    0.59730    1.000
    N210     N        0.02385    0.52894    0.55270    1.000
    Si211    Si       0.02786    0.51651    0.59440    1.000
    N212     N        0.03570    0.60548    0.58127    1.000
    N213     N        0.99666    0.62483    0.52678    1.000
    N214     N        0.00752    0.54572    0.61990    1.000
    Si215    Si       0.03062    0.63551    0.55114    1.000
    N216     N        0.01809    0.73480    0.54056    1.000
    N217     N        0.01171    0.66687    0.57415    1.000
    N218     N        0.02960    0.72908    0.61180    1.000
    Si219    Si       0.01249    0.65184    0.61559    1.000
    Si220    Si       0.99206    0.70341    0.55629    1.000
    Si221    Si       0.04546    0.74457    0.57222    1.000
    Si222    Si       0.01350    0.75679    0.50232    1.000
    Si223    Si       0.01490    0.54031    0.66156    1.000
    N224     N        0.03306    0.59729    0.73161    1.000
    Si225    Si       0.99133    0.62265    0.73595    1.000
    N226     N        0.98945    0.61359    0.62460    1.000
    Si227    Si       0.04302    0.74004    0.65165    1.000
    N228     N        0.00733    0.74398    0.74055    1.000
    N229     N        0.01961    0.65533    0.74401    1.000
    N230     N        0.00277    0.73866    0.66640    1.000
    N231     N        0.02664    0.54524    0.78531    1.000
    Si232    Si       0.03140    0.51848    0.81840    1.000
    N233     N        0.00248    0.59143    0.84069    1.000
    Si234    Si       0.03958    0.57819    0.85945    1.000
    N235     N        0.99896    0.50742    0.84572    1.000
    Si236    Si       0.99023    0.61986    0.81098    1.000
    N237     N        0.02085    0.65353    0.81172    1.000
    Si238    Si       0.01645    0.68224    0.77843    1.000
    Si239    Si       0.01045    0.51730    0.95934    1.000
    Si240    Si       0.01439    0.58401    0.92950    1.000
    N241     N        0.01536    0.56090    0.89226    1.000
    Si242    Si       0.01635    0.51878    0.88370    1.000
    N243     N        0.99998    0.55896    0.96183    1.000
    N244     N        0.04330    0.68266    0.87146    1.000
    N245     N        0.01020    0.74388    0.90581    1.000
    N246     N        0.03348    0.72679    0.96408    1.000
    Si247    Si       0.00771    0.70475    0.88303    1.000
    N248     N        0.01221    0.65512    0.97620    1.000
    Si249    Si       0.01953    0.68669    0.94791    1.000
    N250     N        0.99238    0.68188    0.91607    1.000
    Si251    Si       0.99707    0.74796    0.94559    1.000
    Si252    Si       0.02279    0.80333    0.03325    1.000
    Si253    Si       0.00924    0.78172    0.10839    1.000
    N254     N        0.00096    0.78284    0.06504    1.000
    N255     N        0.04809    0.83223    0.05396    1.000
    N256     N        0.02603    0.88552    0.00807    1.000
    N257     N        0.02029    0.94946    0.03315    1.000
    Si258    Si       0.02537    0.94237    0.07539    1.000
    Si259    Si       0.99731    0.91740    0.01176    1.000
    N260     N        0.04073    0.89781    0.07887    1.000
    N261     N        0.04656    0.97590    0.09553    1.000
    N262     N        0.03700    0.85698    0.14660    1.000
    Si263    Si       0.00221    0.87188    0.16390    1.000
    N264     N        0.03036    0.79086    0.17402    1.000
    Si265    Si       0.99245    0.00748    0.18259    1.000
    N266     N        0.00340    0.99066    0.14328    1.000
    Si267    Si       0.04670    0.99342    0.13385    1.000
    N268     N        0.01413    0.91230    0.17625    1.000
    N269     N        0.00793    0.77760    0.35757    1.000
    N270     N        0.03000    0.81031    0.29719    1.000
    Si271    Si       0.02678    0.81883    0.25402    1.000
    Si272    Si       0.01114    0.87361    0.33278    1.000
    Si273    Si       0.99653    0.79801    0.32109    1.000
    N274     N        0.01428    0.86082    0.24977    1.000
    Si275    Si       0.02350    0.95907    0.32786    1.000
    Si276    Si       0.02265    0.90132    0.26541    1.000
    N277     N        0.99956    0.90065    0.30291    1.000
    N278     N        0.00285    0.94946    0.36370    1.000
    N279     N        0.03648    0.00249    0.32331    1.000
    N280     N        0.00094    0.93159    0.24719    1.000
    N281     N        0.98807    0.96766    0.29960    1.000
    Si282    Si       0.99743    0.84514    0.38305    1.000
    N283     N        0.03226    0.82386    0.39983    1.000
    Si284    Si       0.99836    0.82720    0.48516    1.000
    N285     N        0.02394    0.85618    0.46633    1.000
    Si286    Si       0.04447    0.78801    0.37975    1.000
    Si287    Si       0.02038    0.92365    0.39353    1.000
    N288     N        0.01160    0.88370    0.37528    1.000
    Si289    Si       0.01427    0.89940    0.46978    1.000
    N290     N        0.00318    0.92233    0.43252    1.000
    N291     N        0.01961    0.79872    0.51329    1.000
    Si292    Si       0.03290    0.81366    0.55308    1.000
    N293     N        0.99957    0.83147    0.57288    1.000
    Si294    Si       0.04014    0.88308    0.57632    1.000
    Si295    Si       0.00381    0.93475    0.58042    1.000
    N296     N        0.02829    0.91577    0.54995    1.000
    N297     N        0.02871    0.97159    0.58664    1.000
    N298     N        0.01282    0.90281    0.60915    1.000
    N299     N        0.01199    0.84085    0.64374    1.000
    Si300    Si       0.98920    0.87933    0.63619    1.000
    Si301    Si       0.00999    0.97346    0.73187    1.000
    N302     N        0.03067    0.94647    0.65699    1.000
    Si303    Si       0.01388    0.99553    0.61952    1.000
    N304     N        0.04174    0.00783    0.64983    1.000
    Si305    Si       0.01592    0.85444    0.81421    1.000
    Si306    Si       0.03218    0.77791    0.81220    1.000
    N307     N        0.02577    0.84025    0.76325    1.000
    N308     N        0.00081    0.87335    0.85200    1.000
    N309     N        0.03567    0.81746    0.82865    1.000
    N310     N        0.99129    0.76579    0.80527    1.000
    N311     N        0.03613    0.75494    0.84965    1.000
    Si312    Si       0.98831    0.75518    0.84850    1.000
    Si313    Si       0.00835    0.91602    0.83450    1.000
    N314     N        0.02381    0.89690    0.79767    1.000
    N315     N        0.02185    0.95527    0.82081    1.000
    Si316    Si       0.03194    0.98734    0.84963    1.000
    Si317    Si       0.02098    0.89468    0.75352    1.000
    N318     N        0.02049    0.93813    0.75258    1.000
    N319     N        0.99430    0.00255    0.76255    1.000
    Si320    Si       0.04716    0.93643    0.78958    1.000
    Si321    Si       0.02810    0.86453    0.96848    1.000
    N322     N        0.99238    0.78911    0.95277    1.000
    Si323    Si       0.04879    0.75576    0.89027    1.000
    Si324    Si       0.02203    0.88254    0.89272    1.000
    N325     N        0.00965    0.99151    0.94763    1.000
    N326     N        0.02738    0.92434    0.87448    1.000
    N327     N        0.99286    0.98615    0.87392    1.000
    N328     N        0.04184    0.88389    0.93351    1.000
    Si329    Si       0.07159    0.03938    0.03020    1.000
    N330     N        0.08874    0.02556    0.06852    1.000
    N331     N        0.09519    0.09092    0.09884    1.000
    Si332    Si       0.09396    0.04833    0.10570    1.000
    Si333    Si       0.05962    0.11489    0.11164    1.000
    N334     N        0.08633    0.12393    0.03739    1.000
    N335     N        0.04691    0.20604    0.03019    1.000
    Si336    Si       0.10070    0.15828    0.06268    1.000
    N337     N        0.07746    0.18883    0.08217    1.000
    Si338    Si       0.08845    0.20755    0.01471    1.000
    N339     N        0.10279    0.24828    0.01562    1.000
    N340     N        0.08414    0.03343    0.23264    1.000
    N341     N        0.08018    0.08515    0.18829    1.000
    N342     N        0.06301    0.03248    0.13340    1.000
    Si343    Si       0.07716    0.07681    0.23198    1.000
    Si344    Si       0.05265    0.05916    0.16599    1.000
    Si345    Si       0.08668    0.12885    0.17508    1.000
    N346     N        0.05133    0.20748    0.24492    1.000
    N347     N        0.05791    0.14736    0.20205    1.000
    Si348    Si       0.08433    0.18802    0.12447    1.000
    N349     N        0.05198    0.21307    0.13770    1.000
    N350     N        0.10189    0.24361    0.19768    1.000
    Si351    Si       0.07554    0.14910    0.24273    1.000
    N352     N        0.07670    0.14627    0.13514    1.000
    Si353    Si       0.07768    0.23757    0.23251    1.000
    N354     N        0.06297    0.05931    0.35217    1.000
    Si355    Si       0.07244    0.01675    0.33773    1.000
    Si356    Si       0.09864    0.08269    0.35388    1.000
    N357     N        0.09669    0.10972    0.25028    1.000
    N358     N        0.10111    0.01520    0.30289    1.000
    N359     N        0.09950    0.10889    0.32047    1.000
    N360     N        0.09192    0.17963    0.30446    1.000
    Si361    Si       0.09283    0.14845    0.33508    1.000
    N362     N        0.05482    0.21650    0.35273    1.000
    N363     N        0.05032    0.15223    0.34206    1.000
    Si364    Si       0.04985    0.19100    0.31900    1.000
    Si365    Si       0.09365    0.11284    0.48679    1.000
    N366     N        0.09694    0.11052    0.38533    1.000
    Si367    Si       0.07388    0.00983    0.41251    1.000
    N368     N        0.08867    0.02651    0.48888    1.000
    Si369    Si       0.09165    0.23961    0.48317    1.000
    N370     N        0.05864    0.13242    0.46815    1.000
    Si371    Si       0.06064    0.17766    0.45645    1.000
    N372     N        0.09424    0.19472    0.47857    1.000
    N373     N        0.10088    0.24721    0.39516    1.000
    N374     N        0.07439    0.17850    0.41496    1.000
    N375     N        0.05829    0.25648    0.46018    1.000
    Si376    Si       0.08464    0.20783    0.38368    1.000
    Si377    Si       0.07916    0.04714    0.52677    1.000
    N378     N        0.07438    0.08853    0.51995    1.000
    N379     N        0.04794    0.02750    0.54938    1.000
    N380     N        0.07255    0.14369    0.56034    1.000
    Si381    Si       0.08464    0.24088    0.56885    1.000
    N382     N        0.06185    0.20858    0.59011    1.000
    Si383    Si       0.06811    0.16580    0.59840    1.000
    N384     N        0.08488    0.24982    0.52425    1.000
    N385     N        0.06804    0.08328    0.63243    1.000
    Si386    Si       0.09225    0.07979    0.66701    1.000
    N387     N        0.07907    0.05294    0.69897    1.000
    N388     N        0.09874    0.11867    0.68475    1.000
    Si389    Si       0.08530    0.05019    0.74251    1.000
    Si390    Si       0.10366    0.15546    0.66519    1.000
    N391     N        0.07676    0.15033    0.74260    1.000
    N392     N        0.08982    0.23708    0.64993    1.000
    Si393    Si       0.05921    0.21380    0.66695    1.000
    N394     N        0.07291    0.17947    0.68420    1.000
    Si395    Si       0.06613    0.05744    0.81237    1.000
    N396     N        0.05649    0.09945    0.82174    1.000
    N397     N        0.05278    0.04938    0.76905    1.000
    Si398    Si       0.08381    0.13504    0.82526    1.000
    N399     N        0.06159    0.22153    0.76515    1.000
    Si400    Si       0.08234    0.18280    0.77349    1.000
    N401     N        0.09434    0.22458    0.85508    1.000
    N402     N        0.06022    0.16604    0.80884    1.000
    Si403    Si       0.05261    0.23718    0.85444    1.000
    N404     N        0.10376    0.15255    0.86060    1.000
    Si405    Si       0.07615    0.25572    0.78672    1.000
    N406     N        0.08339    0.08020    0.92527    1.000
    Si407    Si       0.09596    0.18980    0.88013    1.000
    N408     N        0.09322    0.18664    0.97526    1.000
    N409     N        0.06233    0.19046    0.90927    1.000
    N410     N        0.07988    0.24650    0.95165    1.000
    Si411    Si       0.08798    0.20815    0.93850    1.000
    Si412    Si       0.06953    0.32019    0.02731    1.000
    N413     N        0.07377    0.36413    0.02736    1.000
    N414     N        0.06170    0.35055    0.10422    1.000
    N415     N        0.09895    0.30655    0.05488    1.000
    Si416    Si       0.09897    0.33603    0.08738    1.000
    Si417    Si       0.09980    0.39153    0.04570    1.000
    N418     N        0.07829    0.42012    0.06805    1.000
    N419     N        0.07986    0.44833    0.01143    1.000
    N420     N        0.08173    0.47879    0.10898    1.000
    Si421    Si       0.09595    0.43954    0.10145    1.000
    Si422    Si       0.04959    0.43562    0.03863    1.000
    Si423    Si       0.04685    0.49520    0.08758    1.000
    Si424    Si       0.08104    0.28067    0.18835    1.000
    N425     N        0.07337    0.27590    0.14629    1.000
    N426     N        0.10020    0.37086    0.15919    1.000
    N427     N        0.05611    0.27498    0.22464    1.000
    Si428    Si       0.06563    0.38262    0.13521    1.000
    Si429    Si       0.05150    0.46276    0.14780    1.000
    N430     N        0.07329    0.49541    0.17052    1.000
    N431     N        0.07603    0.42449    0.14018    1.000
    N432     N        0.08110    0.42157    0.21298    1.000
    Si433    Si       0.10274    0.41180    0.17531    1.000
    Si434    Si       0.09529    0.39888    0.24591    1.000
    Si435    Si       0.10446    0.50341    0.13968    1.000
    Si436    Si       0.07909    0.33998    0.28237    1.000
    N437     N        0.08842    0.27395    0.32035    1.000
    Si438    Si       0.09223    0.33527    0.35715    1.000
    N439     N        0.09756    0.35439    0.31787    1.000
    N440     N        0.06477    0.37068    0.25647    1.000
    N441     N        0.04968    0.32196    0.35491    1.000
    Si442    Si       0.04851    0.29291    0.32377    1.000
    N443     N        0.08428    0.41425    0.34956    1.000
    N444     N        0.07068    0.30695    0.41443    1.000
    Si445    Si       0.09562    0.34085    0.42789    1.000
    N446     N        0.06843    0.35650    0.45744    1.000
    Si447    Si       0.06583    0.26461    0.41853    1.000
    N448     N        0.10362    0.36316    0.38901    1.000
    N449     N        0.10510    0.45756    0.39431    1.000
    N450     N        0.07377    0.41742    0.42551    1.000
    Si451    Si       0.06676    0.45765    0.41515    1.000
    Si452    Si       0.10192    0.41241    0.39128    1.000
    N453     N        0.06291    0.49419    0.43697    1.000
    N454     N        0.08223    0.34696    0.58573    1.000
    N455     N        0.05629    0.27517    0.57572    1.000
    Si456    Si       0.06579    0.34056    0.49701    1.000
    N457     N        0.10222    0.31856    0.50208    1.000
    Si458    Si       0.06508    0.37811    0.55863    1.000
    N459     N        0.04837    0.37388    0.52010    1.000
    N460     N        0.05993    0.43890    0.50562    1.000
    N461     N        0.08967    0.41278    0.56299    1.000
    Si462    Si       0.08959    0.44602    0.53369    1.000
    N463     N        0.08836    0.48523    0.55129    1.000
    N464     N        0.09209    0.46110    0.61460    1.000
    Si465    Si       0.10632    0.42409    0.60260    1.000
    Si466    Si       0.05715    0.36482    0.62011    1.000
    Si467    Si       0.06693    0.27718    0.71253    1.000
    Si468    Si       0.07779    0.37344    0.70614    1.000
    N469     N        0.06763    0.35802    0.74341    1.000
    N470     N        0.10533    0.28642    0.69178    1.000
    N471     N        0.07534    0.47831    0.68160    1.000
    N472     N        0.09006    0.39457    0.63051    1.000
    Si473    Si       0.05900    0.46422    0.64160    1.000
    N474     N        0.07345    0.41516    0.70556    1.000
    Si475    Si       0.09179    0.45190    0.71235    1.000
    N476     N        0.07766    0.36116    0.85691    1.000
    Si477    Si       0.08123    0.32562    0.77238    1.000
    N478     N        0.07180    0.28638    0.75534    1.000
    N479     N        0.09902    0.29844    0.85875    1.000
    N480     N        0.04980    0.26553    0.82017    1.000
    Si481    Si       0.10662    0.33539    0.84011    1.000
    Si482    Si       0.06079    0.46875    0.84902    1.000
    N483     N        0.07934    0.46178    0.75318    1.000
    N484     N        0.05714    0.42564    0.85440    1.000
    Si485    Si       0.09286    0.40155    0.86585    1.000
    N486     N        0.10169    0.48296    0.84663    1.000
    Si487    Si       0.09841    0.27436    0.98009    1.000
    Si488    Si       0.05446    0.32979    0.95192    1.000
    Si489    Si       0.06796    0.30166    0.88984    1.000
    N490     N        0.09080    0.32241    0.92237    1.000
    N491     N        0.06910    0.30430    0.98707    1.000
    N492     N        0.06637    0.37451    0.96032    1.000
    N493     N        0.05505    0.25933    0.89268    1.000
    N494     N        0.05032    0.43776    0.93114    1.000
    N495     N        0.04931    0.49916    0.96120    1.000
    N496     N        0.10342    0.48346    0.91601    1.000
    N497     N        0.10209    0.40320    0.90716    1.000
    N498     N        0.04981    0.49233    0.88416    1.000
    Si499    Si       0.07247    0.48880    0.99653    1.000
    Si500    Si       0.06082    0.39797    0.92433    1.000
    Si501    Si       0.05835    0.47831    0.92376    1.000
    N502     N        0.07371    0.58946    0.04419    1.000
    Si503    Si       0.06313    0.62018    0.07487    1.000
    N504     N        0.07278    0.52311    0.02463    1.000
    N505     N        0.07425    0.60150    0.11219    1.000
    Si506    Si       0.09991    0.60149    0.01049    1.000
    Si507    Si       0.05135    0.55212    0.04718    1.000
    N508     N        0.04921    0.53865    0.08880    1.000
    Si509    Si       0.06259    0.56318    0.12387    1.000
    Si510    Si       0.06565    0.70089    0.07339    1.000
    N511     N        0.07828    0.65867    0.06448    1.000
    N512     N        0.06883    0.70737    0.02659    1.000
    Si513    Si       0.09164    0.67202    0.02304    1.000
    N514     N        0.07996    0.63880    0.99813    1.000
    N515     N        0.06540    0.55524    0.22424    1.000
    N516     N        0.06123    0.62638    0.23401    1.000
    N517     N        0.10105    0.61331    0.17640    1.000
    Si518    Si       0.05282    0.52999    0.18995    1.000
    N519     N        0.06013    0.70842    0.11954    1.000
    Si520    Si       0.06522    0.63493    0.19060    1.000
    N521     N        0.07176    0.74200    0.20718    1.000
    N522     N        0.06639    0.67727    0.18092    1.000
    Si523    Si       0.08963    0.69182    0.14601    1.000
    Si524    Si       0.08313    0.54428    0.30108    1.000
    N525     N        0.08212    0.54335    0.34485    1.000
    N526     N        0.07233    0.58612    0.29009    1.000
    Si527    Si       0.05597    0.61379    0.31767    1.000
    N528     N        0.05292    0.51997    0.28170    1.000
    Si529    Si       0.07964    0.58984    0.24784    1.000
    Si530    Si       0.05280    0.56031    0.37355    1.000
    N531     N        0.08261    0.64604    0.32778    1.000
    Si532    Si       0.08164    0.72892    0.25580    1.000
    N533     N        0.09346    0.70484    0.29323    1.000
    Si534    Si       0.09963    0.68404    0.32963    1.000
    N535     N        0.06987    0.57072    0.41192    1.000
    Si536    Si       0.05464    0.60131    0.43800    1.000
    Si537    Si       0.07376    0.62283    0.49292    1.000
    Si538    Si       0.08777    0.50998    0.46807    1.000
    N539     N        0.08755    0.63032    0.45029    1.000
    N540     N        0.04826    0.59274    0.48005    1.000
    Si541    Si       0.06417    0.71618    0.39070    1.000
    N542     N        0.09816    0.70298    0.36621    1.000
    N543     N        0.05678    0.69556    0.42927    1.000
    Si544    Si       0.05856    0.69902    0.47303    1.000
    N545     N        0.09746    0.70205    0.49152    1.000
    Si546    Si       0.07094    0.61811    0.60572    1.000
    Si547    Si       0.06507    0.52008    0.54169    1.000
    N548     N        0.06987    0.52713    0.59449    1.000
    N549     N        0.09085    0.55380    0.53785    1.000
    N550     N        0.05640    0.52150    0.49766    1.000
    N551     N        0.10602    0.63346    0.58571    1.000
    N552     N        0.06597    0.64697    0.52995    1.000
    N553     N        0.08097    0.72258    0.56747    1.000
    N554     N        0.09454    0.58738    0.62209    1.000
    Si555    Si       0.08451    0.54729    0.63103    1.000
    N556     N        0.05713    0.54113    0.66291    1.000
    Si557    Si       0.07739    0.52115    0.69403    1.000
    N558     N        0.05219    0.52922    0.72781    1.000
    N559     N        0.07572    0.75216    0.71708    1.000
    Si560    Si       0.10120    0.72026    0.69368    1.000
    Si561    Si       0.07568    0.66884    0.65934    1.000
    N562     N        0.05370    0.64859    0.62984    1.000
    N563     N        0.06768    0.70839    0.66850    1.000
    Si564    Si       0.05547    0.63516    0.73053    1.000
    N565     N        0.07769    0.64550    0.69562    1.000
    N566     N        0.09218    0.57635    0.76038    1.000
    N567     N        0.05824    0.54212    0.84431    1.000
    Si568    Si       0.05031    0.56566    0.75397    1.000
    N569     N        0.06105    0.61544    0.86641    1.000
    N570     N        0.08863    0.65725    0.82125    1.000
    Si571    Si       0.08443    0.67955    0.78491    1.000
    N572     N        0.08651    0.64369    0.75963    1.000
    N573     N        0.05200    0.70492    0.77381    1.000
    Si574    Si       0.05057    0.65005    0.84241    1.000
    Si575    Si       0.05086    0.74182    0.75221    1.000
    N576     N        0.08230    0.54753    0.91114    1.000
    Si577    Si       0.08970    0.57768    0.94202    1.000
    Si578    Si       0.09265    0.51558    0.88131    1.000
    Si579    Si       0.09929    0.61694    0.88720    1.000
    N580     N        0.05263    0.60122    0.94273    1.000
    N581     N        0.09926    0.56893    0.98283    1.000
    Si582    Si       0.05150    0.63788    0.96593    1.000
    N583     N        0.06029    0.67268    0.93819    1.000
    Si584    Si       0.07413    0.68682    0.90081    1.000
    N585     N        0.07987    0.73006    0.90889    1.000
    Si586    Si       0.07780    0.73425    0.95423    1.000
    N587     N        0.10693    0.66132    0.88952    1.000
    Si588    Si       0.07697    0.81635    0.08242    1.000
    N589     N        0.08880    0.85174    0.10921    1.000
    Si590    Si       0.05147    0.87378    0.04162    1.000
    N591     N        0.04926    0.77485    0.01629    1.000
    N592     N        0.10616    0.78810    0.07011    1.000
    N593     N        0.04998    0.79835    0.11079    1.000
    Si594    Si       0.07740    0.80026    0.99422    1.000
    Si595    Si       0.05694    0.88011    0.11640    1.000
    N596     N        0.09093    0.88198    0.02404    1.000
    Si597    Si       0.08541    0.98324    0.08070    1.000
    N598     N        0.08385    0.95547    0.04902    1.000
    Si599    Si       0.05603    0.96543    0.01751    1.000
    Si600    Si       0.10054    0.92512    0.02286    1.000
    N601     N        0.05571    0.00637    0.00590    1.000
    N602     N        0.09152    0.80302    0.16999    1.000
    N603     N        0.06266    0.80959    0.23271    1.000
    Si604    Si       0.06434    0.78313    0.19849    1.000
    Si605    Si       0.05580    0.81877    0.14818    1.000
    Si606    Si       0.08847    0.92711    0.23905    1.000
    Si607    Si       0.05284    0.93187    0.16966    1.000
    N608     N        0.07361    0.91512    0.13458    1.000
    Si609    Si       0.08208    0.99680    0.20324    1.000
    N610     N        0.06085    0.97316    0.17273    1.000
    N611     N        0.07718    0.91204    0.20059    1.000
    N612     N        0.08593    0.96995    0.23777    1.000
    N613     N        0.07501    0.80178    0.35078    1.000
    Si614    Si       0.06566    0.82627    0.31689    1.000
    Si615    Si       0.09952    0.80848    0.25310    1.000
    N616     N        0.10041    0.83075    0.28958    1.000
    N617     N        0.05382    0.86751    0.32302    1.000
    Si618    Si       0.07557    0.90331    0.31278    1.000
    N619     N        0.06523    0.90782    0.27041    1.000
    N620     N        0.06248    0.94004    0.33473    1.000
    N621     N        0.07830    0.80402    0.45200    1.000
    N622     N        0.08069    0.86805    0.43292    1.000
    Si623    Si       0.06935    0.76063    0.44635    1.000
    Si624    Si       0.05217    0.83587    0.43811    1.000
    N625     N        0.06109    0.75557    0.40365    1.000
    N626     N        0.06283    0.92974    0.40270    1.000
    Si627    Si       0.08504    0.95112    0.37145    1.000
    Si628    Si       0.09054    0.88775    0.46722    1.000
    N629     N        0.05525    0.91417    0.47598    1.000
    N630     N        0.08080    0.99380    0.37370    1.000
    Si631    Si       0.07458    0.93896    0.44255    1.000
    Si632    Si       0.05654    0.99996    0.48370    1.000
    N633     N        0.06481    0.98111    0.44401    1.000
    Si634    Si       0.09521    0.86825    0.53600    1.000
    Si635    Si       0.07997    0.79601    0.61122    1.000
    N636     N        0.05644    0.85087    0.55132    1.000
    N637     N        0.05458    0.78718    0.57918    1.000
    Si638    Si       0.10728    0.86770    0.60680    1.000
    Si639    Si       0.10142    0.92844    0.57466    1.000
    N640     N        0.09020    0.91111    0.53570    1.000
    N641     N        0.07673    0.89873    0.59770    1.000
    N642     N        0.09414    0.97069    0.56469    1.000
    Si643    Si       0.05508    0.92733    0.51796    1.000
    Si644    Si       0.05610    0.98535    0.55616    1.000
    N645     N        0.05320    0.97010    0.51463    1.000
    N646     N        0.08221    0.83660    0.62661    1.000
    N647     N        0.05762    0.82670    0.69895    1.000
    Si648    Si       0.07891    0.78767    0.69091    1.000
    N649     N        0.06527    0.77601    0.65037    1.000
    Si650    Si       0.05242    0.84369    0.65970    1.000
    Si651    Si       0.06207    0.84298    0.73938    1.000
    N652     N        0.05743    0.88766    0.66369    1.000
    Si653    Si       0.06312    0.97079    0.67044    1.000
    Si654    Si       0.08603    0.97213    0.72799    1.000
    Si655    Si       0.08114    0.89877    0.69794    1.000
    N656     N        0.05670    0.88605    0.73332    1.000
    N657     N        0.10289    0.99577    0.67338    1.000
    N658     N        0.08792    0.95029    0.63088    1.000
    Si659    Si       0.05368    0.91858    0.63248    1.000
    N660     N        0.08415    0.94130    0.69785    1.000
    N661     N        0.04692    0.99222    0.71157    1.000
    N662     N        0.06206    0.77151    0.78178    1.000
    Si663    Si       0.09136    0.79937    0.79632    1.000
    Si664    Si       0.06397    0.82318    0.86116    1.000
    N665     N        0.09614    0.83050    0.76585    1.000
    N666     N        0.09924    0.80952    0.83821    1.000
    N667     N        0.08373    0.95242    0.76678    1.000
    N668     N        0.08497    0.92865    0.82699    1.000
    Si669    Si       0.07088    0.93382    0.86581    1.000
    N670     N        0.06055    0.86253    0.87780    1.000
    N671     N        0.08663    0.77680    0.95859    1.000
    N672     N        0.06221    0.79681    0.89576    1.000
    Si673    Si       0.09449    0.80456    0.92371    1.000
    Si674    Si       0.08072    0.87886    0.91213    1.000
    N675     N        0.04963    0.82967    0.97965    1.000
    Si676    Si       0.07731    0.00586    0.90282    1.000
    N677     N        0.06729    0.97747    0.87174    1.000
    N678     N        0.08290    0.94550    0.98909    1.000
    N679     N        0.08112    0.99759    0.94647    1.000
    N680     N        0.09398    0.91727    0.89749    1.000
    N681     N        0.14406    0.09458    0.04858    1.000
    Si682    Si       0.13635    0.10820    0.08848    1.000
    Si683    Si       0.11557    0.09900    0.01808    1.000
    N684     N        0.13382    0.03882    0.12223    1.000
    N685     N        0.16690    0.09994    0.11896    1.000
    N686     N        0.10490    0.05813    0.00829    1.000
    N687     N        0.13587    0.15111    0.08861    1.000
    Si688    Si       0.15310    0.22693    0.10762    1.000
    N689     N        0.12056    0.17997    0.02994    1.000
    Si690    Si       0.15658    0.17421    0.05326    1.000
    N691     N        0.12314    0.25368    0.09049    1.000
    N692     N        0.16750    0.21024    0.07010    1.000
    N693     N        0.12653    0.20261    0.13564    1.000
    Si694    Si       0.13125    0.23014    0.16921    1.000
    N695     N        0.12662    0.14649    0.17604    1.000
    N696     N        0.11261    0.17488    0.24026    1.000
    Si697    Si       0.14304    0.16048    0.13581    1.000
    Si698    Si       0.14587    0.17103    0.20991    1.000
    N699     N        0.15805    0.20977    0.19539    1.000
    N700     N        0.12889    0.05077    0.35555    1.000
    Si701    Si       0.13708    0.03648    0.31360    1.000
    Si702    Si       0.12270    0.10507    0.28572    1.000
    N703     N        0.14679    0.06809    0.28510    1.000
    N704     N        0.14721    0.23750    0.34749    1.000
    Si705    Si       0.11847    0.19953    0.27494    1.000
    N706     N        0.11289    0.17530    0.36714    1.000
    N707     N        0.16087    0.19331    0.28654    1.000
    N708     N        0.10636    0.23903    0.26628    1.000
    Si709    Si       0.15203    0.19823    0.36513    1.000
    Si710    Si       0.14065    0.03974    0.39484    1.000
    Si711    Si       0.14588    0.10375    0.43544    1.000
    Si712    Si       0.11776    0.04617    0.46182    1.000
    N713     N        0.11696    0.08783    0.46168    1.000
    N714     N        0.15829    0.03480    0.46885    1.000
    N715     N        0.16157    0.07553    0.40731    1.000
    N716     N        0.10682    0.03509    0.42209    1.000
    N717     N        0.16264    0.18542    0.47945    1.000
    N718     N        0.13512    0.14653    0.42906    1.000
    N719     N        0.15494    0.21002    0.40713    1.000
    Si720    Si       0.14006    0.24933    0.41737    1.000
    Si721    Si       0.10286    0.14924    0.40031    1.000
    Si722    Si       0.14124    0.07271    0.55750    1.000
    N723     N        0.13887    0.11443    0.57081    1.000
    N724     N        0.11440    0.03734    0.55164    1.000
    N725     N        0.16431    0.07983    0.52143    1.000
    N726     N        0.12316    0.13493    0.50869    1.000
    N727     N        0.12391    0.18517    0.54655    1.000
    N728     N        0.12535    0.24000    0.57996    1.000
    Si729    Si       0.15308    0.20782    0.56901    1.000
    Si730    Si       0.11417    0.14315    0.55070    1.000
    Si731    Si       0.12499    0.17851    0.50072    1.000
    N732     N        0.13045    0.05597    0.65984    1.000
    Si733    Si       0.12126    0.03078    0.69551    1.000
    Si734    Si       0.15334    0.03929    0.62740    1.000
    N735     N        0.15718    0.03082    0.72088    1.000
    Si736    Si       0.10759    0.12126    0.72727    1.000
    N737     N        0.10415    0.01059    0.73940    1.000
    N738     N        0.10400    0.16056    0.62137    1.000
    N739     N        0.14582    0.16526    0.66909    1.000
    Si740    Si       0.14855    0.16268    0.62404    1.000
    N741     N        0.14509    0.13965    0.73295    1.000
    N742     N        0.15143    0.23978    0.68650    1.000
    Si743    Si       0.14011    0.05905    0.84106    1.000
    Si744    Si       0.13021    0.09094    0.78814    1.000
    N745     N        0.11803    0.13072    0.79705    1.000
    N746     N        0.11100    0.08418    0.74799    1.000
    N747     N        0.10874    0.05915    0.81278    1.000
    N748     N        0.16321    0.02499    0.85026    1.000
    Si749    Si       0.14715    0.22805    0.78971    1.000
    Si750    Si       0.14468    0.15701    0.77290    1.000
    N751     N        0.12362    0.19429    0.77585    1.000
    N752     N        0.12974    0.08785    0.87183    1.000
    Si753    Si       0.15692    0.10794    0.95308    1.000
    N754     N        0.11558    0.02496    0.89508    1.000
    N755     N        0.13404    0.12190    0.98570    1.000
    N756     N        0.14208    0.06521    0.94508    1.000
    Si757    Si       0.12012    0.06562    0.90723    1.000
    Si758    Si       0.13567    0.04216    0.98100    1.000
    Si759    Si       0.13823    0.12994    0.87431    1.000
    N760     N        0.15593    0.12991    0.91560    1.000
    Si761    Si       0.13100    0.16544    0.98560    1.000
    Si762    Si       0.16037    0.21182    0.92836    1.000
    N763     N        0.12322    0.20091    0.91200    1.000
    N764     N        0.16328    0.18557    0.96595    1.000
    N765     N        0.12472    0.36926    0.07472    1.000
    Si766    Si       0.12342    0.26808    0.05001    1.000
    N767     N        0.16473    0.27249    0.03555    1.000
    Si768    Si       0.16491    0.30521    0.00626    1.000
    Si769    Si       0.15853    0.38012    0.99484    1.000
    Si770    Si       0.15829    0.43229    0.05757    1.000
    N771     N        0.15344    0.46827    0.03411    1.000
    N772     N        0.13828    0.43582    0.09693    1.000
    N773     N        0.13471    0.40860    0.02318    1.000
    Si774    Si       0.12417    0.44913    0.00482    1.000
    N775     N        0.11920    0.31960    0.12183    1.000
    N776     N        0.14410    0.26666    0.15095    1.000
    Si777    Si       0.12306    0.33445    0.16094    1.000
    Si778    Si       0.12710    0.33408    0.23165    1.000
    N779     N        0.12934    0.37723    0.22927    1.000
    Si780    Si       0.11105    0.27864    0.12292    1.000
    N781     N        0.10672    0.31691    0.19729    1.000
    Si782    Si       0.15759    0.40474    0.20913    1.000
    Si783    Si       0.15384    0.44263    0.13582    1.000
    N784     N        0.14340    0.48472    0.14551    1.000
    N785     N        0.14507    0.41861    0.16945    1.000
    N786     N        0.15658    0.44048    0.23458    1.000
    N787     N        0.12793    0.30640    0.35698    1.000
    Si788    Si       0.11301    0.27684    0.28642    1.000
    N789     N        0.15785    0.27839    0.29244    1.000
    Si790    Si       0.11484    0.26522    0.35458    1.000
    N791     N        0.10844    0.31346    0.26466    1.000
    N792     N        0.14952    0.39017    0.34294    1.000
    N793     N        0.14211    0.49831    0.35284    1.000
    Si794    Si       0.15073    0.42652    0.27534    1.000
    N795     N        0.11187    0.41098    0.28452    1.000
    Si796    Si       0.11099    0.39496    0.32323    1.000
    N797     N        0.15885    0.46698    0.28861    1.000
    Si798    Si       0.13080    0.29939    0.47311    1.000
    Si799    Si       0.14822    0.37155    0.38250    1.000
    N800     N        0.13438    0.32584    0.43793    1.000
    N801     N        0.12424    0.25817    0.46093    1.000
    N802     N        0.14392    0.40638    0.40619    1.000
    N803     N        0.12672    0.49147    0.47329    1.000
    Si804    Si       0.13601    0.48510    0.39347    1.000
    Si805    Si       0.15224    0.45880    0.49176    1.000
    N806     N        0.13233    0.36370    0.54524    1.000
    N807     N        0.13489    0.30676    0.56927    1.000
    Si808    Si       0.15014    0.27241    0.59024    1.000
    Si809    Si       0.12341    0.34366    0.58827    1.000
    Si810    Si       0.13540    0.32147    0.53021    1.000
    N811     N        0.16285    0.30869    0.50017    1.000
    N812     N        0.12915    0.43586    0.52017    1.000
    N813     N        0.14684    0.42549    0.58887    1.000
    Si814    Si       0.14394    0.40436    0.54725    1.000
    N815     N        0.14918    0.50263    0.58198    1.000
    Si816    Si       0.10556    0.49959    0.59153    1.000
    Si817    Si       0.12532    0.37817    0.65439    1.000
    N818     N        0.14905    0.28036    0.63319    1.000
    Si819    Si       0.13042    0.31800    0.70464    1.000
    N820     N        0.11182    0.35439    0.68743    1.000
    N821     N        0.14467    0.35299    0.62366    1.000
    Si822    Si       0.12223    0.26037    0.66087    1.000
    N823     N        0.15039    0.31768    0.74254    1.000
    N824     N        0.14958    0.41141    0.66680    1.000
    Si825    Si       0.16098    0.41880    0.70843    1.000
    N826     N        0.13338    0.45005    0.72269    1.000
    N827     N        0.14569    0.34819    0.85285    1.000
    Si828    Si       0.15490    0.33501    0.78247    1.000
    N829     N        0.15799    0.27306    0.85827    1.000
    N830     N        0.11350    0.33513    0.79790    1.000
    Si831    Si       0.11715    0.26065    0.84529    1.000
    N832     N        0.11728    0.25653    0.80163    1.000
    Si833    Si       0.16137    0.38413    0.83542    1.000
    Si834    Si       0.11998    0.46943    0.76407    1.000
    N835     N        0.14516    0.46009    0.79753    1.000
    N836     N        0.12738    0.41152    0.84217    1.000
    Si837    Si       0.13327    0.45502    0.83852    1.000
    N838     N        0.13094    0.30233    0.97696    1.000
    Si839    Si       0.12942    0.32965    0.94105    1.000
    N840     N        0.13716    0.36990    0.95746    1.000
    N841     N        0.16221    0.31533    0.91477    1.000
    Si842    Si       0.13630    0.40593    0.93343    1.000
    Si843    Si       0.16296    0.50198    0.88902    1.000
    Si844    Si       0.13042    0.48143    0.94740    1.000
    N845     N        0.13205    0.43918    0.96232    1.000
    N846     N        0.11323    0.49436    0.98436    1.000
    N847     N        0.14241    0.60612    0.02183    1.000
    N848     N        0.14858    0.53686    0.02735    1.000
    Si849    Si       0.11203    0.53369    0.00549    1.000
    Si850    Si       0.13596    0.67909    0.09832    1.000
    N851     N        0.13412    0.67819    0.01913    1.000
    N852     N        0.15288    0.64458    0.07689    1.000
    Si853    Si       0.14223    0.71748    0.00469    1.000
    Si854    Si       0.15890    0.64595    0.03270    1.000
    Si855    Si       0.12617    0.75060    0.07803    1.000
    N856     N        0.14043    0.74934    0.03610    1.000
    N857     N        0.11011    0.71064    0.08292    1.000
    N858     N        0.14683    0.59884    0.13163    1.000
    Si859    Si       0.13672    0.59457    0.19579    1.000
    Si860    Si       0.14345    0.55611    0.14161    1.000
    N861     N        0.15231    0.55609    0.18348    1.000
    N862     N        0.12166    0.59300    0.23864    1.000
    Si863    Si       0.10713    0.61906    0.13400    1.000
    N864     N        0.10322    0.54576    0.13246    1.000
    N865     N        0.14980    0.75311    0.21099    1.000
    N866     N        0.12225    0.71644    0.15949    1.000
    Si867    Si       0.11590    0.72853    0.20195    1.000
    N868     N        0.11075    0.69918    0.23387    1.000
    N869     N        0.11069    0.65922    0.12575    1.000
    Si870    Si       0.16036    0.72733    0.14114    1.000
    N871     N        0.12375    0.53848    0.28890    1.000
    Si872    Si       0.12120    0.53457    0.35753    1.000
    N873     N        0.14973    0.56747    0.35375    1.000
    Si874    Si       0.15855    0.61192    0.25157    1.000
    Si875    Si       0.15641    0.60837    0.37017    1.000
    Si876    Si       0.13382    0.69131    0.27497    1.000
    N877     N        0.14654    0.68595    0.32112    1.000
    N878     N        0.15275    0.64980    0.27089    1.000
    Si879    Si       0.16241    0.72262    0.33996    1.000
    N880     N        0.16210    0.72372    0.27069    1.000
    N881     N        0.13912    0.75882    0.34059    1.000
    N882     N        0.13987    0.59254    0.42126    1.000
    N883     N        0.12281    0.52634    0.40300    1.000
    Si884    Si       0.16131    0.52129    0.48222    1.000
    Si885    Si       0.11082    0.56208    0.42248    1.000
    N886     N        0.10498    0.55124    0.46526    1.000
    N887     N        0.12511    0.68628    0.43091    1.000
    Si888    Si       0.12486    0.63850    0.43080    1.000
    N889     N        0.16253    0.63920    0.45363    1.000
    N890     N        0.13443    0.64319    0.38656    1.000
    Si891    Si       0.12842    0.71451    0.46244    1.000
    N892     N        0.11430    0.75268    0.45075    1.000
    Si893    Si       0.13177    0.68697    0.38845    1.000
    Si894    Si       0.13163    0.60243    0.60456    1.000
    N895     N        0.15528    0.55362    0.50935    1.000
    Si896    Si       0.11506    0.56780    0.50485    1.000
    N897     N        0.15161    0.58025    0.57407    1.000
    N898     N        0.11273    0.61108    0.50996    1.000
    N899     N        0.13112    0.74587    0.54109    1.000
    N900     N        0.14255    0.71136    0.60109    1.000
    N901     N        0.13055    0.67584    0.54296    1.000
    Si902    Si       0.11856    0.74141    0.58422    1.000
    Si903    Si       0.16321    0.68681    0.57195    1.000
    Si904    Si       0.10675    0.64086    0.54278    1.000
    Si905    Si       0.10685    0.70986    0.53361    1.000
    Si906    Si       0.16023    0.51372    0.62353    1.000
    N907     N        0.16008    0.61237    0.63564    1.000
    N908     N        0.11934    0.52007    0.63122    1.000
    N909     N        0.13907    0.62017    0.72204    1.000
    N910     N        0.11499    0.54330    0.70190    1.000
    Si911    Si       0.11997    0.55139    0.74162    1.000
    N912     N        0.13573    0.73494    0.66915    1.000
    Si913    Si       0.14751    0.70004    0.64336    1.000
    N914     N        0.12106    0.69192    0.71917    1.000
    N915     N        0.11948    0.66956    0.65818    1.000
    Si916    Si       0.11971    0.65309    0.69956    1.000
    N917     N        0.12876    0.60566    0.85572    1.000
    N918     N        0.14803    0.62433    0.79279    1.000
    Si919    Si       0.11743    0.61409    0.76008    1.000
    Si920    Si       0.15700    0.57073    0.86326    1.000
    N921     N        0.16027    0.56565    0.75686    1.000
    N922     N        0.12934    0.51224    0.76180    1.000
    Si923    Si       0.14655    0.70491    0.75128    1.000
    Si924    Si       0.12786    0.63874    0.82804    1.000
    Si925    Si       0.13805    0.71423    0.82419    1.000
    N926     N        0.11916    0.70475    0.78566    1.000
    N927     N        0.14920    0.67534    0.84162    1.000
    N928     N        0.12018    0.74447    0.84904    1.000
    N929     N        0.13502    0.53359    0.87478    1.000
    N930     N        0.11865    0.60531    0.92558    1.000
    Si931    Si       0.16120    0.61136    0.92102    1.000
    Si932    Si       0.11856    0.74332    0.89320    1.000
    N933     N        0.15107    0.71582    0.90220    1.000
    Si934    Si       0.14652    0.67680    0.88343    1.000
    N935     N        0.11268    0.71560    0.97108    1.000
    Si936    Si       0.13682    0.79368    0.03889    1.000
    Si937    Si       0.12668    0.85914    0.01505    1.000
    N938     N        0.15538    0.83610    0.10880    1.000
    N939     N        0.15485    0.86661    0.04947    1.000
    N940     N        0.11291    0.81801    0.01251    1.000
    N941     N        0.15362    0.75874    0.11135    1.000
    N942     N        0.13191    0.90598    0.09967    1.000
    N943     N        0.14232    0.92538    0.01903    1.000
    Si944    Si       0.15590    0.90948    0.06107    1.000
    N945     N        0.11040    0.97388    0.11653    1.000
    Si946    Si       0.12862    0.86763    0.12304    1.000
    N947     N        0.12548    0.86491    0.16636    1.000
    Si948    Si       0.12824    0.82250    0.18056    1.000
    N949     N        0.13077    0.82529    0.22481    1.000
    N950     N        0.16311    0.80158    0.16699    1.000
    N951     N        0.12085    0.00240    0.18358    1.000
    Si952    Si       0.12045    0.90223    0.18966    1.000
    N953     N        0.13775    0.93267    0.16390    1.000
    N954     N        0.12811    0.91042    0.23271    1.000
    Si955    Si       0.15725    0.00170    0.20839    1.000
    Si956    Si       0.11322    0.93311    0.12739    1.000
    Si957    Si       0.13101    0.00165    0.14198    1.000
    Si958    Si       0.13127    0.85517    0.31087    1.000
    N959     N        0.14056    0.83065    0.34535    1.000
    Si960    Si       0.11818    0.79444    0.35407    1.000
    N961     N        0.15768    0.86760    0.27891    1.000
    Si962    Si       0.14915    0.76200    0.25519    1.000
    N963     N        0.10591    0.76600    0.26119    1.000
    Si964    Si       0.10271    0.00407    0.26016    1.000
    N965     N        0.11762    0.89455    0.32113    1.000
    Si966    Si       0.14367    0.92656    0.33271    1.000
    N967     N        0.14741    0.94721    0.29361    1.000
    Si968    Si       0.15460    0.91175    0.26828    1.000
    N969     N        0.14564    0.99973    0.25073    1.000
    N970     N        0.12923    0.94734    0.36769    1.000
    Si971    Si       0.11805    0.79351    0.43755    1.000
    Si972    Si       0.14959    0.84674    0.48511    1.000
    N973     N        0.15254    0.81346    0.45863    1.000
    N974     N        0.13128    0.80157    0.39724    1.000
    Si975    Si       0.16279    0.82722    0.38374    1.000
    Si976    Si       0.15882    0.92476    0.45555    1.000
    N977     N        0.11416    0.92297    0.45571    1.000
    N978     N        0.15582    0.99789    0.40852    1.000
    N979     N        0.12413    0.85965    0.56715    1.000
    N980     N        0.12270    0.78152    0.60255    1.000
    Si981    Si       0.16566    0.79467    0.60017    1.000
    N982     N        0.11100    0.86157    0.49623    1.000
    Si983    Si       0.16668    0.85824    0.56183    1.000
    Si984    Si       0.12822    0.99945    0.56745    1.000
    N985     N        0.15846    0.98064    0.54415    1.000
    N986     N        0.14192    0.92953    0.58660    1.000
    N987     N        0.13281    0.00484    0.61041    1.000
    N988     N        0.11418    0.87256    0.69704    1.000
    Si989    Si       0.14009    0.83683    0.69797    1.000
    Si990    Si       0.15548    0.77285    0.67258    1.000
    N991     N        0.12138    0.79965    0.68543    1.000
    N992     N        0.16081    0.83976    0.73706    1.000
    N993     N        0.15162    0.96485    0.73303    1.000
    N994     N        0.15420    0.95205    0.65567    1.000
    N995     N        0.13940    0.88315    0.63007    1.000
    Si996    Si       0.12005    0.97529    0.63981    1.000
    Si997    Si       0.16383    0.92132    0.62331    1.000
    Si998    Si       0.16831    0.94398    0.69758    1.000
    N999     N        0.13524    0.78869    0.79645    1.000
    Si1000   Si       0.13324    0.78668    0.84138    1.000
    Si1001   Si       0.13816    0.82711    0.77285    1.000
    N1002    N        0.15839    0.84939    0.80569    1.000
    N1003    N        0.13609    0.98176    0.79590    1.000
    N1004    N        0.14514    0.91799    0.78648    1.000
    Si1005   Si       0.11219    0.94452    0.79725    1.000
    Si1006   Si       0.14386    0.00062    0.75580    1.000
    N1007    N        0.12981    0.78402    0.90464    1.000
    Si1008   Si       0.14783    0.85702    0.93658    1.000
    N1009    N        0.14584    0.87145    0.97911    1.000
    N1010    N        0.10591    0.84755    0.92771    1.000
    N1011    N        0.15924    0.89218    0.91378    1.000
    Si1012   Si       0.10860    0.97222    0.96725    1.000
    N1013    N        0.13887    0.99794    0.98233    1.000
    N1014    N        0.13397    0.94061    0.95078    1.000
    Si1015   Si       0.13248    0.92788    0.91097    1.000
    Si1016   Si       0.15638    0.91405    0.97866    1.000
    N1017    N        0.14977    0.95849    0.88143    1.000
    Si1018   Si       0.15170    0.00153    0.88547    1.000
    N1019    N        0.18573    0.04508    0.07178    1.000
    Si1020   Si       0.18058    0.07327    0.03739    1.000
    N1021    N        0.21461    0.09588    0.02496    1.000
    Si1022   Si       0.17364    0.05631    0.11258    1.000
    N1023    N        0.17254    0.04584    0.00503    1.000
    Si1024   Si       0.21234    0.01223    0.06435    1.000
    Si1025   Si       0.19108    0.23988    0.04730    1.000
    N1026    N        0.21032    0.21758    0.01779    1.000
    N1027    N        0.18246    0.15447    0.02481    1.000
    Si1028   Si       0.22244    0.13894    0.01987    1.000
    N1029    N        0.22349    0.25325    0.07310    1.000
    Si1030   Si       0.21301    0.12924    0.21880    1.000
    N1031    N        0.20349    0.10303    0.18184    1.000
    N1032    N        0.18230    0.03401    0.19641    1.000
    Si1033   Si       0.20584    0.06713    0.20836    1.000
    Si1034   Si       0.19838    0.11788    0.14181    1.000
    N1035    N        0.20733    0.05480    0.13780    1.000
    Si1036   Si       0.20007    0.01836    0.15998    1.000
    N1037    N        0.20125    0.09305    0.24399    1.000
    Si1038   Si       0.19659    0.22795    0.20091    1.000
    N1039    N        0.18528    0.15899    0.13918    1.000
    Si1040   Si       0.21324    0.19170    0.13927    1.000
    N1041    N        0.18091    0.15465    0.22415    1.000
    N1042    N        0.19251    0.22764    0.12683    1.000
    N1043    N        0.21609    0.22457    0.24143    1.000
    Si1044   Si       0.18476    0.08949    0.28422    1.000
    Si1045   Si       0.21024    0.03407    0.32751    1.000
    N1046    N        0.21342    0.07744    0.31510    1.000
    N1047    N        0.17264    0.01340    0.31235    1.000
    N1048    N        0.16037    0.12572    0.29562    1.000
    Si1049   Si       0.18082    0.16032    0.31061    1.000
    N1050    N        0.18409    0.17271    0.35138    1.000
    N1051    N        0.21106    0.22866    0.30713    1.000
    Si1052   Si       0.20148    0.20246    0.27364    1.000
    Si1053   Si       0.17953    0.25468    0.32201    1.000
    N1054    N        0.22031    0.16618    0.29046    1.000
    Si1055   Si       0.20206    0.07908    0.39458    1.000
    N1056    N        0.20869    0.04088    0.37205    1.000
    N1057    N        0.21228    0.11487    0.37389    1.000
    N1058    N        0.17982    0.11008    0.46278    1.000
    Si1059   Si       0.18902    0.05327    0.49621    1.000
    Si1060   Si       0.16345    0.17732    0.43643    1.000
    N1061    N        0.20524    0.17082    0.42225    1.000
    Si1062   Si       0.21442    0.15913    0.38071    1.000
    Si1063   Si       0.17871    0.10341    0.59268    1.000
    N1064    N        0.21454    0.10198    0.57146    1.000
    N1065    N        0.20894    0.01460    0.50350    1.000
    N1066    N        0.16662    0.06254    0.59381    1.000
    Si1067   Si       0.16453    0.11859    0.50171    1.000
    N1068    N        0.16788    0.19669    0.60839    1.000
    Si1069   Si       0.21243    0.23917    0.55674    1.000
    N1070    N        0.18545    0.21037    0.54102    1.000
    N1071    N        0.19881    0.14348    0.51724    1.000
    Si1072   Si       0.19594    0.18541    0.50682    1.000
    Si1073   Si       0.19451    0.04205    0.74120    1.000
    N1074    N        0.19062    0.02014    0.64289    1.000
    N1075    N        0.20813    0.08193    0.74305    1.000
    N1076    N        0.20336    0.12526    0.69187    1.000
    Si1077   Si       0.17664    0.22715    0.71897    1.000
    N1078    N        0.19001    0.18746    0.72575    1.000
    Si1079   Si       0.20715    0.21180    0.62298    1.000
    N1080    N        0.17826    0.13135    0.62410    1.000
    N1081    N        0.20599    0.25115    0.64079    1.000
    Si1082   Si       0.17230    0.15583    0.70138    1.000
    Si1083   Si       0.21257    0.13751    0.65287    1.000
    Si1084   Si       0.19616    0.10641    0.83624    1.000
    N1085    N        0.18641    0.01674    0.77794    1.000
    N1086    N        0.16484    0.08442    0.81484    1.000
    Si1087   Si       0.21333    0.17738    0.76044    1.000
    Si1088   Si       0.18683    0.17674    0.82923    1.000
    N1089    N        0.18343    0.16515    0.78789    1.000
    Si1090   Si       0.18763    0.23956    0.85558    1.000
    N1091    N        0.17296    0.14180    0.85091    1.000
    N1092    N        0.16799    0.21592    0.82510    1.000
    N1093    N        0.16936    0.24625    0.75723    1.000
    N1094    N        0.18893    0.01271    0.91033    1.000
    Si1095   Si       0.19813    0.12034    0.90470    1.000
    N1096    N        0.20164    0.09897    0.94560    1.000
    N1097    N        0.19859    0.08705    0.87564    1.000
    Si1098   Si       0.20792    0.04632    0.88368    1.000
    N1099    N        0.18881    0.22012    0.89407    1.000
    Si1100   Si       0.20176    0.19164    0.98386    1.000
    N1101    N        0.16208    0.25305    0.94447    1.000
    N1102    N        0.18709    0.33784    0.09114    1.000
    Si1103   Si       0.16626    0.36105    0.06257    1.000
    N1104    N        0.16368    0.34605    0.02265    1.000
    Si1105   Si       0.22251    0.32382    0.11002    1.000
    N1106    N        0.18948    0.40050    0.05761    1.000
    Si1107   Si       0.17904    0.50416    0.03196    1.000
    N1108    N        0.16458    0.33069    0.17261    1.000
    N1109    N        0.19570    0.26952    0.19639    1.000
    Si1110   Si       0.18802    0.34803    0.20441    1.000
    Si1111   Si       0.18033    0.29058    0.16291    1.000
    N1112    N        0.21271    0.29092    0.13593    1.000
    N1113    N        0.16986    0.32679    0.23839    1.000
    N1114    N        0.20259    0.50416    0.17904    1.000
    Si1115   Si       0.18837    0.49559    0.13752    1.000
    N1116    N        0.19567    0.44942    0.13227    1.000
    N1117    N        0.19760    0.38692    0.21836    1.000
    N1118    N        0.19869    0.28622    0.34471    1.000
    Si1119   Si       0.18179    0.31338    0.27843    1.000
    N1120    N        0.17775    0.33930    0.31190    1.000
    Si1121   Si       0.18556    0.38075    0.32142    1.000
    Si1122   Si       0.17042    0.31683    0.34941    1.000
    N1123    N        0.21900    0.29832    0.26574    1.000
    N1124    N        0.18638    0.40420    0.28441    1.000
    N1125    N        0.19901    0.45691    0.34388    1.000
    Si1126   Si       0.17167    0.48458    0.32558    1.000
    Si1127   Si       0.17827    0.47492    0.24984    1.000
    Si1128   Si       0.21542    0.40788    0.25220    1.000
    N1129    N        0.21912    0.45331    0.25018    1.000
    N1130    N        0.17883    0.34183    0.38478    1.000
    Si1131   Si       0.20276    0.31768    0.48770    1.000
    N1132    N        0.17550    0.28005    0.41703    1.000
    N1133    N        0.19652    0.34879    0.45434    1.000
    Si1134   Si       0.17469    0.32380    0.42427    1.000
    Si1135   Si       0.21806    0.27202    0.42593    1.000
    N1136    N        0.17104    0.42830    0.46705    1.000
    N1137    N        0.16983    0.47246    0.41346    1.000
    Si1138   Si       0.20124    0.39253    0.45878    1.000
    N1139    N        0.21219    0.41238    0.42308    1.000
    Si1140   Si       0.20099    0.50337    0.41895    1.000
    Si1141   Si       0.17128    0.43251    0.42437    1.000
    N1142    N        0.19171    0.26806    0.58036    1.000
    Si1143   Si       0.21885    0.28097    0.61293    1.000
    Si1144   Si       0.21921    0.38165    0.52929    1.000
    Si1145   Si       0.18913    0.43004    0.58210    1.000
    N1146    N        0.18870    0.40377    0.54881    1.000
    N1147    N        0.20527    0.46834    0.57123    1.000
    Si1148   Si       0.18115    0.50001    0.55320    1.000
    N1149    N        0.17781    0.48962    0.51067    1.000
    N1150    N        0.20381    0.41969    0.62216    1.000
    N1151    N        0.21141    0.31883    0.63137    1.000
    Si1152   Si       0.18813    0.34144    0.71516    1.000
    Si1153   Si       0.16636    0.32119    0.64060    1.000
    N1154    N        0.21565    0.31614    0.74053    1.000
    N1155    N        0.16974    0.31430    0.68293    1.000
    Si1156   Si       0.18183    0.27027    0.67246    1.000
    N1157    N        0.17423    0.38205    0.72827    1.000
    N1158    N        0.20476    0.25979    0.70902    1.000
    Si1159   Si       0.20055    0.46913    0.72785    1.000
    Si1160   Si       0.17954    0.43895    0.65194    1.000
    N1161    N        0.18426    0.47994    0.63772    1.000
    N1162    N        0.19886    0.43808    0.69362    1.000
    N1163    N        0.18176    0.30165    0.79615    1.000
    N1164    N        0.20631    0.32555    0.85526    1.000
    Si1165   Si       0.18441    0.28565    0.75081    1.000
    Si1166   Si       0.21645    0.29971    0.82195    1.000
    N1167    N        0.17197    0.37255    0.79382    1.000
    Si1168   Si       0.16740    0.31439    0.87159    1.000
    Si1169   Si       0.19413    0.39447    0.76485    1.000
    N1170    N        0.19307    0.44031    0.75899    1.000
    Si1171   Si       0.18836    0.46596    0.79388    1.000
    N1172    N        0.19631    0.39552    0.86057    1.000
    N1173    N        0.16345    0.46335    0.86704    1.000
    N1174    N        0.19326    0.51028    0.79248    1.000
    N1175    N        0.19868    0.30328    0.97738    1.000
    Si1176   Si       0.18429    0.28855    0.93950    1.000
    N1177    N        0.22148    0.28056    0.91643    1.000
    N1178    N        0.22087    0.45682    0.96291    1.000
    N1179    N        0.16806    0.49449    0.93084    1.000
    Si1180   Si       0.20907    0.41650    0.94949    1.000
    Si1181   Si       0.20363    0.49440    0.95540    1.000
    N1182    N        0.17702    0.41600    0.92120    1.000
    N1183    N        0.19924    0.38750    0.98037    1.000
    Si1184   Si       0.18835    0.43245    0.88363    1.000
    N1185    N        0.18469    0.58293    0.07396    1.000
    Si1186   Si       0.20208    0.55103    0.09524    1.000
    N1187    N        0.20412    0.52012    0.06457    1.000
    N1188    N        0.20047    0.57385    0.00494    1.000
    Si1189   Si       0.17189    0.61555    0.10078    1.000
    Si1190   Si       0.16880    0.57387    0.03363    1.000
    N1191    N        0.20976    0.50395    0.99955    1.000
    N1192    N        0.20978    0.63288    0.11826    1.000
    N1193    N        0.19996    0.64533    0.02016    1.000
    Si1194   Si       0.21843    0.73946    0.00969    1.000
    Si1195   Si       0.21111    0.67525    0.11383    1.000
    N1196    N        0.17273    0.69251    0.11848    1.000
    N1197    N        0.22731    0.74770    0.05325    1.000
    N1198    N        0.17281    0.53235    0.12005    1.000
    Si1199   Si       0.21500    0.60541    0.20956    1.000
    N1200    N        0.17262    0.61630    0.21026    1.000
    Si1201   Si       0.18296    0.53443    0.20339    1.000
    N1202    N        0.21484    0.56260    0.21554    1.000
    N1203    N        0.17303    0.51747    0.24197    1.000
    N1204    N        0.19559    0.74228    0.16225    1.000
    Si1205   Si       0.18808    0.54561    0.34857    1.000
    N1206    N        0.18750    0.52198    0.31179    1.000
    N1207    N        0.17984    0.58325    0.27443    1.000
    N1208    N        0.17964    0.62533    0.33734    1.000
    Si1209   Si       0.22163    0.61908    0.35539    1.000
    Si1210   Si       0.21955    0.59603    0.28554    1.000
    Si1211   Si       0.16580    0.54069    0.27760    1.000
    Si1212   Si       0.17691    0.65619    0.30879    1.000
    N1213    N        0.21061    0.67488    0.29073    1.000
    N1214    N        0.20145    0.73323    0.32365    1.000
    Si1215   Si       0.20314    0.71860    0.28485    1.000
    N1216    N        0.19725    0.60191    0.39301    1.000
    Si1217   Si       0.17937    0.60669    0.43210    1.000
    N1218    N        0.20244    0.53189    0.38671    1.000
    N1219    N        0.19409    0.52439    0.45536    1.000
    N1220    N        0.21080    0.59133    0.45821    1.000
    Si1221   Si       0.22080    0.61006    0.49519    1.000
    Si1222   Si       0.21095    0.69379    0.38713    1.000
    N1223    N        0.21420    0.68110    0.42774    1.000
    N1224    N        0.17024    0.70613    0.37908    1.000
    N1225    N        0.21608    0.65326    0.48943    1.000
    Si1226   Si       0.18849    0.67319    0.46158    1.000
    Si1227   Si       0.20306    0.73915    0.48038    1.000
    N1228    N        0.17047    0.70910    0.47616    1.000
    N1229    N        0.20429    0.53779    0.55500    1.000
    N1230    N        0.20421    0.60512    0.53509    1.000
    Si1231   Si       0.17919    0.56977    0.54200    1.000
    Si1232   Si       0.21807    0.63683    0.56019    1.000
    N1233    N        0.19187    0.71280    0.55069    1.000
    N1234    N        0.18590    0.65261    0.58501    1.000
    Si1235   Si       0.17326    0.75054    0.54138    1.000
    N1236    N        0.18014    0.54476    0.64654    1.000
    Si1237   Si       0.18810    0.58523    0.65563    1.000
    N1238    N        0.19599    0.57461    0.69786    1.000
    Si1239   Si       0.17974    0.60376    0.72782    1.000
    Si1240   Si       0.20009    0.53326    0.68783    1.000
    N1241    N        0.22080    0.61319    0.64654    1.000
    N1242    N        0.18814    0.50903    0.72259    1.000
    Si1243   Si       0.18883    0.64317    0.62755    1.000
    N1244    N        0.18727    0.68346    0.64526    1.000
    Si1245   Si       0.22066    0.70377    0.66405    1.000
    N1246    N        0.20285    0.63814    0.70665    1.000
    N1247    N        0.20424    0.71161    0.70359    1.000
    Si1248   Si       0.20039    0.74860    0.72575    1.000
    Si1249   Si       0.20799    0.67595    0.72664    1.000
    N1250    N        0.20487    0.61241    0.76591    1.000
    N1251    N        0.18363    0.56728    0.82913    1.000
    Si1252   Si       0.20709    0.52902    0.83156    1.000
    Si1253   Si       0.17518    0.58733    0.79188    1.000
    Si1254   Si       0.17059    0.52490    0.75820    1.000
    N1255    N        0.17610    0.73214    0.81380    1.000
    Si1256   Si       0.18793    0.64853    0.78558    1.000
    Si1257   Si       0.20918    0.70895    0.82899    1.000
    N1258    N        0.21337    0.66567    0.81614    1.000
    N1259    N        0.17667    0.67568    0.75611    1.000
    N1260    N        0.16408    0.74429    0.74752    1.000
    N1261    N        0.19895    0.52089    0.87510    1.000
    N1262    N        0.18698    0.61961    0.95505    1.000
    Si1263   Si       0.21355    0.54902    0.90454    1.000
    N1264    N        0.17847    0.57850    0.89866    1.000
    Si1265   Si       0.21150    0.61387    0.98928    1.000
    N1266    N        0.22169    0.53404    0.94368    1.000
    N1267    N        0.21517    0.69454    0.93438    1.000
    N1268    N        0.18140    0.72720    0.99155    1.000
    Si1269   Si       0.21287    0.66802    0.90059    1.000
    Si1270   Si       0.19352    0.72349    0.90814    1.000
    N1271    N        0.20762    0.70327    0.87249    1.000
    N1272    N        0.17458    0.64649    0.89881    1.000
    N1273    N        0.21050    0.79658    0.11095    1.000
    Si1274   Si       0.18050    0.84214    0.07476    1.000
    N1275    N        0.17759    0.80445    0.05473    1.000
    N1276    N        0.21656    0.86089    0.09081    1.000
    Si1277   Si       0.21646    0.78880    0.06816    1.000
    N1278    N        0.18983    0.93473    0.07473    1.000
    N1279    N        0.19951    0.98536    0.03390    1.000
    Si1280   Si       0.21405    0.94414    0.10877    1.000
    Si1281   Si       0.21675    0.94642    0.03926    1.000
    Si1282   Si       0.18219    0.00361    0.99794    1.000
    N1283    N        0.21444    0.79050    0.20990    1.000
    N1284    N        0.19857    0.85136    0.22797    1.000
    Si1285   Si       0.18220    0.77148    0.18975    1.000
    Si1286   Si       0.16871    0.79694    0.12378    1.000
    Si1287   Si       0.21333    0.95446    0.23468    1.000
    N1288    N        0.20651    0.92636    0.14714    1.000
    N1289    N        0.17146    0.98807    0.14665    1.000
    Si1290   Si       0.22072    0.88642    0.24297    1.000
    N1291    N        0.18368    0.96632    0.20479    1.000
    Si1292   Si       0.17597    0.94940    0.16446    1.000
    N1293    N        0.17564    0.79475    0.26433    1.000
    Si1294   Si       0.21739    0.78436    0.25207    1.000
    Si1295   Si       0.16530    0.83505    0.24949    1.000
    N1296    N        0.21171    0.97897    0.27010    1.000
    N1297    N        0.18567    0.91795    0.34161    1.000
    Si1298   Si       0.16998    0.98211    0.28234    1.000
    N1299    N        0.19454    0.91865    0.25241    1.000
    Si1300   Si       0.22168    0.93945    0.34743    1.000
    N1301    N        0.20742    0.97303    0.37058    1.000
    N1302    N        0.19810    0.80388    0.39632    1.000
    N1303    N        0.21347    0.82647    0.47089    1.000
    Si1304   Si       0.20965    0.86984    0.46783    1.000
    Si1305   Si       0.19340    0.80093    0.44217    1.000
    N1306    N        0.17422    0.86620    0.39341    1.000
    N1307    N        0.21058    0.75916    0.44381    1.000
    N1308    N        0.16943    0.88362    0.46736    1.000
    N1309    N        0.17237    0.96472    0.47362    1.000
    N1310    N        0.21507    0.00419    0.43710    1.000
    Si1311   Si       0.17350    0.99920    0.44835    1.000
    Si1312   Si       0.20358    0.89599    0.40012    1.000
    N1313    N        0.17799    0.92971    0.41638    1.000
    Si1314   Si       0.16589    0.96061    0.38875    1.000
    Si1315   Si       0.20511    0.81175    0.51282    1.000
    N1316    N        0.19125    0.77875    0.57046    1.000
    N1317    N        0.18985    0.77140    0.50574    1.000
    N1318    N        0.17664    0.83706    0.59874    1.000
    N1319    N        0.17102    0.84034    0.52224    1.000
    N1320    N        0.19068    0.89570    0.55983    1.000
    N1321    N        0.19673    0.95257    0.60566    1.000
    N1322    N        0.21311    0.95202    0.53630    1.000
    Si1323   Si       0.18759    0.97690    0.51215    1.000
    Si1324   Si       0.17667    0.94456    0.56443    1.000
    Si1325   Si       0.22268    0.90948    0.53436    1.000
    Si1326   Si       0.17495    0.86085    0.63460    1.000
    Si1327   Si       0.20505    0.81753    0.69364    1.000
    N1328    N        0.18142    0.77843    0.63635    1.000
    N1329    N        0.18498    0.78094    0.70278    1.000
    Si1330   Si       0.19253    0.87021    0.73688    1.000
    N1331    N        0.17370    0.83986    0.67213    1.000
    N1332    N        0.20498    0.96576    0.68529    1.000
    Si1333   Si       0.19227    0.97758    0.64526    1.000
    N1334    N        0.17749    0.90734    0.71880    1.000
    N1335    N        0.19933    0.89394    0.63740    1.000
    N1336    N        0.20007    0.79226    0.79556    1.000
    Si1337   Si       0.18913    0.82389    0.82495    1.000
    Si1338   Si       0.16922    0.76433    0.78606    1.000
    N1339    N        0.17027    0.80136    0.85766    1.000
    N1340    N        0.22252    0.84738    0.83669    1.000
    N1341    N        0.20037    0.88958    0.77315    1.000
    N1342    N        0.18805    0.90694    0.84150    1.000
    N1343    N        0.20299    0.97410    0.83700    1.000
    N1344    N        0.21085    0.95218    0.76407    1.000
    Si1345   Si       0.17346    0.99940    0.81679    1.000
    Si1346   Si       0.17283    0.93087    0.75559    1.000
    Si1347   Si       0.18585    0.94523    0.86110    1.000
    Si1348   Si       0.17111    0.88910    0.80554    1.000
    Si1349   Si       0.22214    0.99324    0.76662    1.000
    Si1350   Si       0.22164    0.83910    0.94243    1.000
    N1351    N        0.20062    0.76558    0.91691    1.000
    N1352    N        0.17873    0.82826    0.93228    1.000
    Si1353   Si       0.17186    0.79627    0.90298    1.000
    N1354    N        0.22177    0.00308    0.97766    1.000
    Si1355   Si       0.20062    0.90721    0.92378    1.000
    N1356    N        0.21379    0.93653    0.89553    1.000
    N1357    N        0.19949    0.91451    0.96765    1.000
    N1358    N        0.26747    0.04295    0.10593    1.000
    Si1359   Si       0.24835    0.07000    0.02010    1.000
    N1360    N        0.24825    0.02993    0.04158    1.000
    Si1361   Si       0.28147    0.04776    0.06580    1.000
    N1362    N        0.23517    0.11050    0.11838    1.000
    N1363    N        0.28220    0.08539    0.04390    1.000
    N1364    N        0.25045    0.14754    0.05161    1.000
    Si1365   Si       0.25451    0.14330    0.09459    1.000
    Si1366   Si       0.22326    0.25546    0.11539    1.000
    N1367    N        0.28154    0.21111    0.00800    1.000
    N1368    N        0.24882    0.18037    0.11653    1.000
    Si1369   Si       0.24637    0.23290    0.99640    1.000
    Si1370   Si       0.24968    0.07147    0.13332    1.000
    N1371    N        0.24388    0.04717    0.21521    1.000
    N1372    N        0.28099    0.07623    0.16229    1.000
    Si1373   Si       0.28204    0.06134    0.20357    1.000
    Si1374   Si       0.27902    0.20625    0.13189    1.000
    N1375    N        0.25288    0.14722    0.21267    1.000
    N1376    N        0.26437    0.24709    0.12746    1.000
    Si1377   Si       0.26272    0.18654    0.19671    1.000
    N1378    N        0.22745    0.20545    0.17850    1.000
    Si1379   Si       0.23852    0.09909    0.34292    1.000
    N1380    N        0.24644    0.01400    0.31434    1.000
    N1381    N        0.26711    0.07258    0.36552    1.000
    N1382    N        0.26531    0.13114    0.33273    1.000
    Si1383   Si       0.26274    0.15712    0.29891    1.000
    Si1384   Si       0.25430    0.23071    0.31282    1.000
    N1385    N        0.25667    0.24760    0.35144    1.000
    Si1386   Si       0.25775    0.23946    0.24501    1.000
    N1387    N        0.27042    0.25806    0.28240    1.000
    N1388    N        0.26965    0.01388    0.39765    1.000
    N1389    N        0.26836    0.03170    0.47078    1.000
    Si1390   Si       0.26461    0.05571    0.40538    1.000
    N1391    N        0.23031    0.07373    0.42520    1.000
    Si1392   Si       0.22148    0.09912    0.45914    1.000
    N1393    N        0.25038    0.12857    0.46424    1.000
    Si1394   Si       0.25946    0.22312    0.38694    1.000
    N1395    N        0.23088    0.23172    0.41815    1.000
    N1396    N        0.27420    0.18869    0.44410    1.000
    Si1397   Si       0.24304    0.24736    0.49038    1.000
    N1398    N        0.25488    0.17984    0.37788    1.000
    N1399    N        0.22507    0.21011    0.48489    1.000
    Si1400   Si       0.23244    0.19585    0.44383    1.000
    N1401    N        0.28073    0.25032    0.47266    1.000
    Si1402   Si       0.24468    0.08953    0.59922    1.000
    N1403    N        0.24669    0.04647    0.60254    1.000
    Si1404   Si       0.27425    0.02186    0.57939    1.000
    Si1405   Si       0.26541    0.06202    0.50277    1.000
    N1406    N        0.27120    0.04094    0.53960    1.000
    Si1407   Si       0.22639    0.11201    0.52998    1.000
    N1408    N        0.22506    0.07961    0.49989    1.000
    N1409    N        0.26458    0.12969    0.53891    1.000
    N1410    N        0.23256    0.21580    0.58651    1.000
    Si1411   Si       0.27453    0.21413    0.59251    1.000
    Si1412   Si       0.26231    0.02562    0.70738    1.000
    N1413    N        0.24992    0.04791    0.67306    1.000
    N1414    N        0.24242    0.10926    0.63981    1.000
    N1415    N        0.26813    0.10047    0.71037    1.000
    Si1416   Si       0.23312    0.02794    0.63828    1.000
    Si1417   Si       0.26886    0.08685    0.66925    1.000
    Si1418   Si       0.22996    0.11256    0.72518    1.000
    N1419    N        0.22669    0.01447    0.73016    1.000
    N1420    N        0.22386    0.18139    0.64967    1.000
    Si1421   Si       0.26612    0.19243    0.66508    1.000
    N1422    N        0.26312    0.21544    0.70231    1.000
    Si1423   Si       0.24738    0.25595    0.70089    1.000
    N1424    N        0.27626    0.22453    0.63528    1.000
    Si1425   Si       0.27218    0.22458    0.74536    1.000
    N1426    N        0.23974    0.02548    0.85988    1.000
    Si1427   Si       0.26229    0.12566    0.78805    1.000
    N1428    N        0.23267    0.10996    0.81451    1.000
    N1429    N        0.24101    0.14342    0.75456    1.000
    N1430    N        0.24427    0.20511    0.77352    1.000
    Si1431   Si       0.25989    0.19303    0.81136    1.000
    Si1432   Si       0.26120    0.24815    0.85963    1.000
    N1433    N        0.22849    0.18166    0.84067    1.000
    Si1434   Si       0.22419    0.01243    0.93674    1.000
    Si1435   Si       0.27143    0.02783    0.89633    1.000
    N1436    N        0.25906    0.05793    0.98005    1.000
    N1437    N        0.27242    0.11138    0.94672    1.000
    Si1438   Si       0.24126    0.08007    0.94705    1.000
    N1439    N        0.23829    0.05031    0.91698    1.000
    N1440    N        0.22491    0.22180    0.96051    1.000
    Si1441   Si       0.22375    0.23587    0.91795    1.000
    N1442    N        0.22883    0.15153    0.90999    1.000
    Si1443   Si       0.24868    0.17704    0.87935    1.000
    Si1444   Si       0.25304    0.14952    0.94506    1.000
    N1445    N        0.22886    0.15678    0.98113    1.000
    N1446    N        0.25334    0.22025    0.89095    1.000
    Si1447   Si       0.25526    0.27586    0.05405    1.000
    Si1448   Si       0.26278    0.34439    0.04962    1.000
    N1449    N        0.25166    0.31274    0.07785    1.000
    N1450    N        0.25175    0.27440    0.01194    1.000
    N1451    N        0.24202    0.34371    0.01058    1.000
    Si1452   Si       0.26691    0.38131    0.11120    1.000
    N1453    N        0.25517    0.38267    0.06898    1.000
    N1454    N        0.24967    0.41824    0.01123    1.000
    Si1455   Si       0.23783    0.49383    0.07524    1.000
    Si1456   Si       0.23626    0.46180    0.00511    1.000
    Si1457   Si       0.23045    0.41489    0.04998    1.000
    N1458    N        0.22544    0.45944    0.04990    1.000
    N1459    N        0.24193    0.35411    0.13373    1.000
    Si1460   Si       0.25681    0.34680    0.17407    1.000
    N1461    N        0.26020    0.27037    0.21646    1.000
    Si1462   Si       0.27729    0.36663    0.23885    1.000
    N1463    N        0.22814    0.32676    0.20075    1.000
    Si1464   Si       0.22190    0.29221    0.22230    1.000
    N1465    N        0.26717    0.38201    0.19861    1.000
    N1466    N        0.25107    0.50862    0.22845    1.000
    N1467    N        0.23328    0.49460    0.11942    1.000
    N1468    N        0.24984    0.45532    0.17732    1.000
    N1469    N        0.26843    0.42218    0.12297    1.000
    Si1470   Si       0.24411    0.49793    0.18738    1.000
    Si1471   Si       0.23793    0.45057    0.13638    1.000
    Si1472   Si       0.27659    0.42529    0.19366    1.000
    Si1473   Si       0.25835    0.30089    0.28216    1.000
    N1474    N        0.25698    0.31639    0.32234    1.000
    Si1475   Si       0.24169    0.28719    0.35465    1.000
    Si1476   Si       0.25990    0.35600    0.33971    1.000
    N1477    N        0.27840    0.32270    0.24814    1.000
    N1478    N        0.25267    0.38804    0.26787    1.000
    N1479    N        0.26023    0.44442    0.31226    1.000
    Si1480   Si       0.23255    0.42950    0.34213    1.000
    Si1481   Si       0.25864    0.47333    0.25126    1.000
    N1482    N        0.22623    0.38599    0.34171    1.000
    Si1483   Si       0.27956    0.40893    0.29460    1.000
    N1484    N        0.24803    0.29369    0.39747    1.000
    N1485    N        0.22037    0.28265    0.46851    1.000
    N1486    N        0.27717    0.35055    0.37954    1.000
    N1487    N        0.22979    0.40085    0.48973    1.000
    N1488    N        0.23589    0.47911    0.42769    1.000
    Si1489   Si       0.27391    0.41059    0.48638    1.000
    N1490    N        0.25690    0.43811    0.37777    1.000
    Si1491   Si       0.24667    0.43578    0.41973    1.000
    Si1492   Si       0.27158    0.50584    0.43050    1.000
    N1493    N        0.26051    0.28319    0.60154    1.000
    Si1494   Si       0.27251    0.27736    0.55866    1.000
    Si1495   Si       0.26890    0.34780    0.52306    1.000
    N1496    N        0.22670    0.34001    0.51670    1.000
    N1497    N        0.24292    0.25911    0.53296    1.000
    N1498    N        0.25884    0.38131    0.55105    1.000
    N1499    N        0.26115    0.49601    0.53944    1.000
    Si1500   Si       0.24860    0.47818    0.57627    1.000
    N1501    N        0.26177    0.43846    0.58597    1.000
    Si1502   Si       0.24633    0.41947    0.62078    1.000
    N1503    N        0.25060    0.50435    0.60966    1.000
    Si1504   Si       0.24979    0.36618    0.72077    1.000
    Si1505   Si       0.24214    0.34778    0.65027    1.000
    N1506    N        0.27087    0.28165    0.67571    1.000
    N1507    N        0.22091    0.35644    0.69015    1.000
    N1508    N        0.26290    0.26732    0.74085    1.000
    N1509    N        0.25880    0.38016    0.62512    1.000
    Si1510   Si       0.28178    0.26810    0.63558    1.000
    N1511    N        0.28088    0.33380    0.73067    1.000
    N1512    N        0.24426    0.47018    0.72374    1.000
    N1513    N        0.26563    0.40512    0.70561    1.000
    Si1514   Si       0.22715    0.48627    0.64164    1.000
    Si1515   Si       0.24250    0.43857    0.69321    1.000
    N1516    N        0.24970    0.44954    0.65335    1.000
    Si1517   Si       0.28328    0.48140    0.73769    1.000
    N1518    N        0.25012    0.31768    0.79757    1.000
    Si1519   Si       0.25755    0.36143    0.79589    1.000
    Si1520   Si       0.25486    0.30657    0.75684    1.000
    N1521    N        0.23527    0.37707    0.76151    1.000
    Si1522   Si       0.22852    0.36156    0.86344    1.000
    N1523    N        0.22373    0.26138    0.84244    1.000
    N1524    N        0.25041    0.38198    0.83290    1.000
    Si1525   Si       0.26088    0.47965    0.81486    1.000
    Si1526   Si       0.23283    0.42103    0.84043    1.000
    N1527    N        0.22599    0.45303    0.81362    1.000
    N1528    N        0.28370    0.47416    0.77974    1.000
    Si1529   Si       0.24153    0.30864    0.98529    1.000
    N1530    N        0.25956    0.34489    0.88838    1.000
    N1531    N        0.26814    0.31747    0.95111    1.000
    Si1532   Si       0.25699    0.30516    0.90883    1.000
    Si1533   Si       0.24410    0.38197    0.98673    1.000
    N1534    N        0.28029    0.50053    0.89730    1.000
    Si1535   Si       0.27292    0.45994    0.88381    1.000
    N1536    N        0.23244    0.44359    0.87923    1.000
    N1537    N        0.24953    0.39861    0.94495    1.000
    N1538    N        0.27125    0.52156    0.08397    1.000
    N1539    N        0.27499    0.62107    0.11020    1.000
    N1540    N        0.26705    0.54449    0.99730    1.000
    Si1541   Si       0.28307    0.62524    0.06731    1.000
    Si1542   Si       0.25412    0.72213    0.07632    1.000
    N1543    N        0.27009    0.65168    0.03548    1.000
    Si1544   Si       0.23219    0.67275    0.03217    1.000
    N1545    N        0.25626    0.74081    0.11616    1.000
    N1546    N        0.24184    0.70139    0.99975    1.000
    N1547    N        0.22793    0.68780    0.07407    1.000
    N1548    N        0.23401    0.56561    0.12245    1.000
    Si1549   Si       0.25788    0.52973    0.12504    1.000
    Si1550   Si       0.24017    0.60706    0.13451    1.000
    N1551    N        0.24158    0.61809    0.17893    1.000
    N1552    N        0.27451    0.52246    0.16472    1.000
    Si1553   Si       0.24843    0.54979    0.24035    1.000
    Si1554   Si       0.28069    0.60550    0.19608    1.000
    N1555    N        0.28130    0.56836    0.21906    1.000
    N1556    N        0.23893    0.68539    0.15020    1.000
    Si1557   Si       0.25391    0.72343    0.22503    1.000
    N1558    N        0.26235    0.74425    0.18760    1.000
    Si1559   Si       0.23657    0.72857    0.15578    1.000
    Si1560   Si       0.25177    0.66169    0.18550    1.000
    N1561    N        0.23551    0.68369    0.22041    1.000
    N1562    N        0.24670    0.56190    0.28165    1.000
    Si1563   Si       0.25804    0.55347    0.32318    1.000
    N1564    N        0.24213    0.62196    0.31324    1.000
    N1565    N        0.27529    0.51574    0.33694    1.000
    N1566    N        0.22360    0.57048    0.34304    1.000
    N1567    N        0.22907    0.62161    0.24790    1.000
    N1568    N        0.26492    0.71019    0.32462    1.000
    Si1569   Si       0.24773    0.66680    0.31965    1.000
    Si1570   Si       0.23965    0.73965    0.34375    1.000
    N1571    N        0.27424    0.67098    0.27737    1.000
    Si1572   Si       0.23648    0.66127    0.25804    1.000
    N1573    N        0.23070    0.74073    0.25688    1.000
    N1574    N        0.22621    0.66423    0.35948    1.000
    Si1575   Si       0.23114    0.57118    0.39088    1.000
    N1576    N        0.25335    0.54666    0.42617    1.000
    N1577    N        0.25725    0.60964    0.38299    1.000
    Si1578   Si       0.22836    0.55098    0.46102    1.000
    N1579    N        0.27677    0.72869    0.44097    1.000
    Si1580   Si       0.24611    0.74955    0.42127    1.000
    N1581    N        0.23483    0.73051    0.38453    1.000
    Si1582   Si       0.27913    0.72147    0.48375    1.000
    Si1583   Si       0.24359    0.53526    0.53918    1.000
    N1584    N        0.25062    0.62240    0.58517    1.000
    N1585    N        0.26354    0.61640    0.50479    1.000
    N1586    N        0.27738    0.56062    0.55258    1.000
    Si1587   Si       0.28105    0.57880    0.51231    1.000
    N1588    N        0.24659    0.55264    0.49986    1.000
    Si1589   Si       0.26714    0.73011    0.60504    1.000
    N1590    N        0.24624    0.67022    0.54485    1.000
    N1591    N        0.25009    0.74278    0.56733    1.000
    Si1592   Si       0.27553    0.65723    0.57443    1.000
    Si1593   Si       0.23431    0.71253    0.54123    1.000
    Si1594   Si       0.25717    0.65829    0.50569    1.000
    N1595    N        0.27431    0.68744    0.60443    1.000
    N1596    N        0.23895    0.72511    0.50058    1.000
    N1597    N        0.27852    0.56875    0.62499    1.000
    Si1598   Si       0.25526    0.60375    0.62181    1.000
    N1599    N        0.23963    0.51753    0.67046    1.000
    Si1600   Si       0.27095    0.52715    0.64241    1.000
    N1601    N        0.26186    0.61245    0.70771    1.000
    N1602    N        0.25130    0.67276    0.66795    1.000
    N1603    N        0.24647    0.66818    0.74073    1.000
    N1604    N        0.23805    0.73700    0.63792    1.000
    Si1605   Si       0.23776    0.63381    0.68189    1.000
    Si1606   Si       0.27465    0.75036    0.73517    1.000
    Si1607   Si       0.28407    0.68787    0.73115    1.000
    N1608    N        0.24937    0.51674    0.83451    1.000
    N1609    N        0.26579    0.61021    0.83037    1.000
    Si1610   Si       0.27305    0.53213    0.86706    1.000
    Si1611   Si       0.24348    0.62511    0.74610    1.000
    N1612    N        0.28238    0.61858    0.76634    1.000
    N1613    N        0.24229    0.73529    0.81521    1.000
    Si1614   Si       0.24893    0.65071    0.83543    1.000
    Si1615   Si       0.27928    0.71531    0.80859    1.000
    N1616    N        0.28150    0.67729    0.82867    1.000
    Si1617   Si       0.26115    0.60436    0.87508    1.000
    N1618    N        0.25317    0.60679    0.98390    1.000
    N1619    N        0.25056    0.56430    0.88461    1.000
    Si1620   Si       0.22516    0.54322    0.98764    1.000
    N1621    N        0.27861    0.66836    0.94563    1.000
    N1622    N        0.24140    0.64294    0.87917    1.000
    N1623    N        0.26167    0.74026    0.94410    1.000
    Si1624   Si       0.25235    0.69948    0.95716    1.000
    N1625    N        0.24812    0.80959    0.04435    1.000
    N1626    N        0.26992    0.81200    0.10517    1.000
    Si1627   Si       0.24763    0.81408    0.00126    1.000
    Si1628   Si       0.23340    0.83371    0.12077    1.000
    N1629    N        0.28184    0.86770    0.06094    1.000
    Si1630   Si       0.28470    0.82409    0.06307    1.000
    Si1631   Si       0.24209    0.88804    0.06767    1.000
    Si1632   Si       0.25252    0.99759    0.00785    1.000
    N1633    N        0.25770    0.95667    0.02291    1.000
    N1634    N        0.24963    0.92091    0.09525    1.000
    Si1635   Si       0.25964    0.00286    0.11970    1.000
    N1636    N        0.22705    0.98573    0.09726    1.000
    N1637    N        0.22347    0.90235    0.03119    1.000
    N1638    N        0.26349    0.84101    0.21817    1.000
    N1639    N        0.23099    0.85134    0.16106    1.000
    Si1640   Si       0.22464    0.83111    0.19892    1.000
    N1641    N        0.27157    0.91796    0.15885    1.000
    Si1642   Si       0.23460    0.89581    0.16514    1.000
    N1643    N        0.25152    0.96708    0.21744    1.000
    N1644    N        0.23730    0.90397    0.20767    1.000
    Si1645   Si       0.27237    0.93151    0.20068    1.000
    Si1646   Si       0.25771    0.00678    0.20083    1.000
    N1647    N        0.24186    0.00318    0.15967    1.000
    N1648    N        0.24925    0.80629    0.27359    1.000
    N1649    N        0.24730    0.78241    0.34069    1.000
    Si1650   Si       0.26734    0.84261    0.26113    1.000
    Si1651   Si       0.27271    0.79266    0.30758    1.000
    N1652    N        0.24770    0.87905    0.27752    1.000
    N1653    N        0.24874    0.94139    0.31406    1.000
    Si1654   Si       0.24874    0.97741    0.28965    1.000
    Si1655   Si       0.26934    0.90437    0.30545    1.000
    Si1656   Si       0.23956    0.80408    0.37929    1.000
    N1657    N        0.26082    0.84332    0.37943    1.000
    N1658    N        0.26510    0.78583    0.40711    1.000
    Si1659   Si       0.26800    0.86194    0.42044    1.000
    N1660    N        0.23016    0.87783    0.43264    1.000
    Si1661   Si       0.23748    0.00254    0.47225    1.000
    N1662    N        0.23709    0.91134    0.37722    1.000
    N1663    N        0.25504    0.96853    0.49018    1.000
    Si1664   Si       0.22604    0.00551    0.39312    1.000
    N1665    N        0.24226    0.81224    0.53724    1.000
    N1666    N        0.24760    0.80030    0.60675    1.000
    Si1667   Si       0.23507    0.78383    0.56980    1.000
    N1668    N        0.28092    0.85714    0.57985    1.000
    Si1669   Si       0.28055    0.83109    0.54467    1.000
    Si1670   Si       0.27082    0.83522    0.61601    1.000
    N1671    N        0.23292    0.88616    0.50012    1.000
    Si1672   Si       0.24020    0.95966    0.60161    1.000
    N1673    N        0.25720    0.92076    0.60750    1.000
    N1674    N        0.25900    0.98368    0.57247    1.000
    N1675    N        0.26662    0.91714    0.54254    1.000
    Si1676   Si       0.25931    0.96086    0.53415    1.000
    Si1677   Si       0.27528    0.89285    0.50575    1.000
    Si1678   Si       0.28368    0.90122    0.57931    1.000
    N1679    N        0.25775    0.86272    0.64705    1.000
    Si1680   Si       0.25937    0.84463    0.68609    1.000
    N1681    N        0.24197    0.80526    0.67402    1.000
    N1682    N        0.22635    0.85055    0.71557    1.000
    Si1683   Si       0.22648    0.78124    0.63982    1.000
    N1684    N        0.27950    0.98758    0.69348    1.000
    N1685    N        0.26066    0.92435    0.67549    1.000
    Si1686   Si       0.24559    0.96463    0.67741    1.000
    N1687    N        0.24260    0.98484    0.63646    1.000
    Si1688   Si       0.24103    0.90046    0.64379    1.000
    Si1689   Si       0.26285    0.83258    0.83722    1.000
    Si1690   Si       0.23767    0.77178    0.79134    1.000
    N1691    N        0.26586    0.80293    0.80453    1.000
    N1692    N        0.23510    0.75986    0.75009    1.000
    Si1693   Si       0.22805    0.88853    0.84676    1.000
    Si1694   Si       0.23566    0.91775    0.77621    1.000
    N1695    N        0.25197    0.90957    0.81464    1.000
    Si1696   Si       0.24454    0.98993    0.83546    1.000
    N1697    N        0.27146    0.96346    0.85830    1.000
    N1698    N        0.25214    0.00245    0.79543    1.000
    N1699    N        0.26425    0.88713    0.87106    1.000
    N1700    N        0.26452    0.91331    0.74610    1.000
    N1701    N        0.22853    0.77648    0.98937    1.000
    Si1702   Si       0.23223    0.77118    0.94545    1.000
    N1703    N        0.25065    0.80819    0.93385    1.000
    N1704    N        0.23129    0.87610    0.92549    1.000
    N1705    N        0.22676    0.84800    0.98535    1.000
    Si1706   Si       0.22841    0.89074    0.98958    1.000
    N1707    N        0.27829    0.92653    0.92205    1.000
    N1708    N        0.25752    0.99154    0.91754    1.000
    N1709    N        0.27270    0.89778    0.98720    1.000
    Si1710   Si       0.25460    0.95236    0.89672    1.000
    Si1711   Si       0.27173    0.88662    0.91171    1.000
    N1712    N        0.32171    0.03700    0.05452    1.000
    Si1713   Si       0.33375    0.07420    0.03203    1.000
    Si1714   Si       0.33544    0.12362    0.10691    1.000
    Si1715   Si       0.29472    0.12871    0.04598    1.000
    N1716    N        0.33932    0.11368    0.05244    1.000
    N1717    N        0.29744    0.13724    0.09163    1.000
    Si1718   Si       0.31017    0.23325    0.03201    1.000
    N1719    N        0.31510    0.21400    0.11022    1.000
    N1720    N        0.30214    0.14187    0.00383    1.000
    Si1721   Si       0.30467    0.25645    0.10530    1.000
    N1722    N        0.34022    0.20553    0.04712    1.000
    Si1723   Si       0.33710    0.02199    0.18175    1.000
    N1724    N        0.29870    0.02167    0.19985    1.000
    Si1725   Si       0.32093    0.08703    0.15461    1.000
    N1726    N        0.29349    0.08873    0.23435    1.000
    Si1727   Si       0.28920    0.13155    0.23006    1.000
    N1728    N        0.32559    0.12961    0.15108    1.000
    N1729    N        0.27957    0.20493    0.23332    1.000
    N1730    N        0.32261    0.15558    0.21947    1.000
    N1731    N        0.29587    0.18829    0.16921    1.000
    Si1732   Si       0.33217    0.16413    0.17624    1.000
    Si1733   Si       0.30470    0.06549    0.34387    1.000
    Si1734   Si       0.31112    0.09673    0.27579    1.000
    N1735    N        0.31036    0.02176    0.34344    1.000
    N1736    N        0.29857    0.06392    0.30106    1.000
    Si1737   Si       0.28732    0.02168    0.30441    1.000
    N1738    N        0.33255    0.09056    0.36459    1.000
    Si1739   Si       0.32105    0.19872    0.32079    1.000
    N1740    N        0.32611    0.16805    0.35022    1.000
    Si1741   Si       0.31013    0.18115    0.25352    1.000
    N1742    N        0.33122    0.23857    0.33627    1.000
    N1743    N        0.29220    0.13977    0.27179    1.000
    Si1744   Si       0.28693    0.15174    0.36503    1.000
    N1745    N        0.27928    0.19639    0.30945    1.000
    N1746    N        0.30424    0.06311    0.42376    1.000
    Si1747   Si       0.32183    0.09867    0.40541    1.000
    Si1748   Si       0.30830    0.02600    0.44939    1.000
    N1749    N        0.29846    0.08573    0.48997    1.000
    Si1750   Si       0.33850    0.08852    0.47162    1.000
    N1751    N        0.31447    0.14500    0.47576    1.000
    Si1752   Si       0.32693    0.25277    0.37687    1.000
    N1753    N        0.29536    0.13281    0.40530    1.000
    Si1754   Si       0.28483    0.14707    0.44400    1.000
    Si1755   Si       0.30003    0.22425    0.44618    1.000
    N1756    N        0.29964    0.23334    0.40324    1.000
    N1757    N        0.31436    0.03129    0.59384    1.000
    Si1758   Si       0.31471    0.07163    0.61169    1.000
    N1759    N        0.28702    0.09691    0.59031    1.000
    Si1760   Si       0.29702    0.12478    0.50895    1.000
    N1761    N        0.32710    0.12655    0.54268    1.000
    Si1762   Si       0.29445    0.13579    0.57203    1.000
    N1763    N        0.32380    0.19472    0.52251    1.000
    Si1764   Si       0.33070    0.22927    0.54728    1.000
    N1765    N        0.29925    0.24324    0.57155    1.000
    N1766    N        0.29507    0.17660    0.58810    1.000
    Si1767   Si       0.33885    0.18487    0.59840    1.000
    Si1768   Si       0.29997    0.08266    0.73466    1.000
    N1769    N        0.30934    0.08252    0.65214    1.000
    N1770    N        0.28681    0.03906    0.73947    1.000
    N1771    N        0.33985    0.08177    0.71786    1.000
    N1772    N        0.29604    0.16263    0.66306    1.000
    Si1773   Si       0.33663    0.15204    0.64705    1.000
    N1774    N        0.30811    0.04019    0.81024    1.000
    Si1775   Si       0.31927    0.08222    0.80396    1.000
    N1776    N        0.32627    0.11005    0.83581    1.000
    N1777    N        0.29382    0.09932    0.77481    1.000
    Si1778   Si       0.28933    0.01772    0.77760    1.000
    Si1779   Si       0.33560    0.02157    0.83916    1.000
    Si1780   Si       0.31306    0.15085    0.84205    1.000
    N1781    N        0.31003    0.22610    0.76196    1.000
    Si1782   Si       0.31601    0.23722    0.80435    1.000
    N1783    N        0.28236    0.15748    0.80937    1.000
    N1784    N        0.28220    0.22637    0.82837    1.000
    N1785    N        0.30870    0.01544    0.87257    1.000
    Si1786   Si       0.30140    0.04115    0.97198    1.000
    N1787    N        0.30021    0.04250    0.92660    1.000
    Si1788   Si       0.30821    0.11563    0.96988    1.000
    Si1789   Si       0.33167    0.01466    0.91467    1.000
    N1790    N        0.32522    0.07780    0.98732    1.000
    N1791    N        0.33570    0.13391    0.94120    1.000
    N1792    N        0.29116    0.16356    0.87861    1.000
    Si1793   Si       0.30436    0.18077    0.98612    1.000
    N1794    N        0.28765    0.17592    0.94738    1.000
    Si1795   Si       0.31509    0.16616    0.91692    1.000
    N1796    N        0.30294    0.33259    0.04046    1.000
    Si1797   Si       0.32499    0.29415    0.04291    1.000
    Si1798   Si       0.31928    0.37080    0.02195    1.000
    N1799    N        0.32944    0.26471    0.00803    1.000
    N1800    N        0.29707    0.26438    0.06186    1.000
    N1801    N        0.31736    0.41204    0.03948    1.000
    Si1802   Si       0.29433    0.43387    0.00801    1.000
    N1803    N        0.34005    0.44029    0.10637    1.000
    N1804    N        0.27862    0.47419    0.01134    1.000
    N1805    N        0.33533    0.28227    0.12254    1.000
    N1806    N        0.30968    0.37325    0.12060    1.000
    N1807    N        0.32981    0.27727    0.20071    1.000
    Si1808   Si       0.32961    0.29915    0.16160    1.000
    N1809    N        0.29088    0.31767    0.17329    1.000
    Si1810   Si       0.29153    0.29945    0.21234    1.000
    N1811    N        0.31568    0.38333    0.24474    1.000
    N1812    N        0.31665    0.42256    0.17480    1.000
    Si1813   Si       0.31263    0.41749    0.13150    1.000
    N1814    N        0.28062    0.44087    0.23508    1.000
    Si1815   Si       0.30913    0.37760    0.37034    1.000
    N1816    N        0.29411    0.38138    0.32704    1.000
    N1817    N        0.31979    0.47269    0.34433    1.000
    N1818    N        0.29090    0.49164    0.27652    1.000
    Si1819   Si       0.31963    0.42588    0.25076    1.000
    N1820    N        0.32461    0.42399    0.29403    1.000
    Si1821   Si       0.28490    0.47802    0.31724    1.000
    N1822    N        0.31873    0.29651    0.37735    1.000
    Si1823   Si       0.32145    0.35234    0.46963    1.000
    N1824    N        0.30440    0.32810    0.43747    1.000
    Si1825   Si       0.28658    0.31479    0.40177    1.000
    N1826    N        0.28774    0.37029    0.49405    1.000
    N1827    N        0.28772    0.49962    0.47081    1.000
    N1828    N        0.31824    0.41398    0.38869    1.000
    Si1829   Si       0.29884    0.45129    0.37702    1.000
    N1830    N        0.29819    0.48822    0.40118    1.000
    Si1831   Si       0.32187    0.41682    0.43197    1.000
    N1832    N        0.28071    0.42121    0.44555    1.000
    Si1833   Si       0.33230    0.30609    0.52860    1.000
    N1834    N        0.28866    0.31257    0.53843    1.000
    N1835    N        0.33342    0.35752    0.61432    1.000
    N1836    N        0.33735    0.26357    0.52271    1.000
    Si1837   Si       0.28878    0.48090    0.51009    1.000
    N1838    N        0.32230    0.40960    0.56819    1.000
    Si1839   Si       0.28366    0.41805    0.55754    1.000
    N1840    N        0.28406    0.43872    0.51672    1.000
    N1841    N        0.32880    0.50296    0.52021    1.000
    N1842    N        0.32292    0.28401    0.63159    1.000
    Si1843   Si       0.29849    0.37216    0.63733    1.000
    Si1844   Si       0.29570    0.31289    0.69197    1.000
    N1845    N        0.28254    0.34280    0.66411    1.000
    N1846    N        0.34054    0.30839    0.69040    1.000
    N1847    N        0.31524    0.40605    0.65700    1.000
    Si1848   Si       0.30908    0.41582    0.70023    1.000
    N1849    N        0.32697    0.38425    0.72453    1.000
    N1850    N        0.30836    0.45973    0.70606    1.000
    Si1851   Si       0.32126    0.50177    0.69337    1.000
    N1852    N        0.30105    0.36713    0.78950    1.000
    N1853    N        0.32471    0.27525    0.82384    1.000
    Si1854   Si       0.31515    0.35090    0.75267    1.000
    Si1855   Si       0.32357    0.28598    0.86557    1.000
    N1856    N        0.32753    0.32810    0.87217    1.000
    Si1857   Si       0.33161    0.38766    0.81399    1.000
    N1858    N        0.28859    0.46071    0.84256    1.000
    N1859    N        0.32632    0.38806    0.85928    1.000
    Si1860   Si       0.32922    0.46193    0.82499    1.000
    N1861    N        0.33930    0.42600    0.79796    1.000
    Si1862   Si       0.29944    0.35987    0.88374    1.000
    N1863    N        0.31072    0.37076    0.92321    1.000
    Si1864   Si       0.30275    0.34283    0.95523    1.000
    N1865    N        0.29625    0.37457    0.98560    1.000
    N1866    N        0.33615    0.31723    0.96651    1.000
    N1867    N        0.28341    0.27947    0.88380    1.000
    N1868    N        0.29598    0.43041    0.90456    1.000
    Si1869   Si       0.33370    0.42246    0.88439    1.000
    Si1870   Si       0.29202    0.40672    0.94146    1.000
    N1871    N        0.31324    0.43611    0.96776    1.000
    Si1872   Si       0.29918    0.55044    0.06766    1.000
    N1873    N        0.32194    0.52425    0.04064    1.000
    N1874    N        0.32187    0.56842    0.10152    1.000
    Si1875   Si       0.29680    0.51557    0.00816    1.000
    N1876    N        0.28539    0.58544    0.04658    1.000
    Si1877   Si       0.28312    0.58475    0.00309    1.000
    Si1878   Si       0.33084    0.72924    0.07130    1.000
    N1879    N        0.32101    0.64701    0.06598    1.000
    Si1880   Si       0.30614    0.67592    0.03713    1.000
    N1881    N        0.29161    0.71083    0.05892    1.000
    N1882    N        0.33668    0.68781    0.00823    1.000
    Si1883   Si       0.31283    0.60308    0.12627    1.000
    Si1884   Si       0.30534    0.54513    0.18685    1.000
    N1885    N        0.30250    0.58642    0.16494    1.000
    N1886    N        0.32786    0.51993    0.22010    1.000
    N1887    N        0.34165    0.53514    0.16054    1.000
    Si1888   Si       0.33415    0.71383    0.22828    1.000
    N1889    N        0.29278    0.71945    0.24164    1.000
    N1890    N        0.33188    0.73369    0.19030    1.000
    N1891    N        0.28696    0.64596    0.21006    1.000
    N1892    N        0.34157    0.67279    0.24042    1.000
    N1893    N        0.29261    0.57967    0.32911    1.000
    N1894    N        0.30905    0.61899    0.27572    1.000
    Si1895   Si       0.32994    0.58192    0.35097    1.000
    Si1896   Si       0.31038    0.51033    0.36414    1.000
    Si1897   Si       0.32554    0.51049    0.26149    1.000
    Si1898   Si       0.28689    0.62033    0.31301    1.000
    Si1899   Si       0.33957    0.58859    0.28063    1.000
    Si1900   Si       0.30479    0.69839    0.34376    1.000
    N1901    N        0.29067    0.65387    0.34220    1.000
    N1902    N        0.32804    0.70771    0.30823    1.000
    Si1903   Si       0.28777    0.71535    0.28600    1.000
    Si1904   Si       0.30273    0.65304    0.24924    1.000
    Si1905   Si       0.33886    0.75175    0.29552    1.000
    N1906    N        0.33267    0.54496    0.37387    1.000
    N1907    N        0.32660    0.61352    0.37937    1.000
    Si1908   Si       0.32405    0.52487    0.48224    1.000
    N1909    N        0.31633    0.56701    0.49176    1.000
    N1910    N        0.29052    0.68084    0.49303    1.000
    N1911    N        0.33667    0.63697    0.47964    1.000
    Si1912   Si       0.33155    0.66156    0.44406    1.000
    N1913    N        0.32394    0.71768    0.37690    1.000
    Si1914   Si       0.29146    0.63614    0.38369    1.000
    N1915    N        0.29761    0.65959    0.41837    1.000
    Si1916   Si       0.31478    0.72528    0.42033    1.000
    N1917    N        0.34222    0.70494    0.44906    1.000
    Si1918   Si       0.30139    0.55803    0.58757    1.000
    N1919    N        0.32522    0.52155    0.58748    1.000
    N1920    N        0.32611    0.59323    0.59199    1.000
    N1921    N        0.31237    0.64980    0.55195    1.000
    Si1922   Si       0.32509    0.66276    0.51323    1.000
    N1923    N        0.30442    0.75068    0.60671    1.000
    N1924    N        0.31101    0.74638    0.49754    1.000
    Si1925   Si       0.31627    0.59810    0.63443    1.000
    N1926    N        0.31002    0.51988    0.65556    1.000
    N1927    N        0.33258    0.58990    0.72134    1.000
    N1928    N        0.30161    0.52213    0.72642    1.000
    Si1929   Si       0.30148    0.61900    0.72661    1.000
    N1930    N        0.28794    0.62928    0.64027    1.000
    Si1931   Si       0.33965    0.51033    0.62627    1.000
    N1932    N        0.31482    0.66008    0.72192    1.000
    Si1933   Si       0.28705    0.67331    0.64242    1.000
    Si1934   Si       0.32470    0.72186    0.68584    1.000
    N1935    N        0.32127    0.69704    0.65056    1.000
    Si1936   Si       0.33684    0.73080    0.62675    1.000
    N1937    N        0.28542    0.72438    0.70345    1.000
    N1938    N        0.31481    0.56437    0.78772    1.000
    N1939    N        0.31122    0.54815    0.85548    1.000
    Si1940   Si       0.29923    0.60420    0.80369    1.000
    Si1941   Si       0.33374    0.54100    0.81981    1.000
    N1942    N        0.33316    0.62618    0.82277    1.000
    Si1943   Si       0.32576    0.55412    0.74714    1.000
    N1944    N        0.31453    0.73922    0.81547    1.000
    Si1945   Si       0.31825    0.66400    0.84880    1.000
    Si1946   Si       0.32400    0.74407    0.77356    1.000
    N1947    N        0.28909    0.71861    0.76425    1.000
    N1948    N        0.29680    0.60900    0.89864    1.000
    Si1949   Si       0.32139    0.57579    0.88902    1.000
    N1950    N        0.32122    0.55031    0.92144    1.000
    N1951    N        0.32202    0.58394    0.98558    1.000
    N1952    N        0.31938    0.51274    0.97062    1.000
    Si1953   Si       0.31223    0.50744    0.92578    1.000
    Si1954   Si       0.33850    0.55253    0.96033    1.000
    N1955    N        0.33445    0.72821    0.94734    1.000
    Si1956   Si       0.33530    0.70915    0.90885    1.000
    N1957    N        0.33397    0.74124    0.88014    1.000
    Si1958   Si       0.30509    0.64474    0.92409    1.000
    N1959    N        0.32036    0.67193    0.89193    1.000
    Si1960   Si       0.30255    0.75664    0.95223    1.000
    N1961    N        0.32341    0.81255    0.04852    1.000
    Si1962   Si       0.32152    0.80134    0.00738    1.000
    N1963    N        0.32176    0.76320    0.09772    1.000
    Si1964   Si       0.28456    0.77471    0.11994    1.000
    N1965    N        0.31127    0.75988    0.99460    1.000
    Si1966   Si       0.31911    0.89043    0.06768    1.000
    N1967    N        0.31926    0.90528    0.10814    1.000
    N1968    N        0.32300    0.92521    0.04125    1.000
    Si1969   Si       0.29085    0.93178    0.01005    1.000
    Si1970   Si       0.30028    0.76335    0.18971    1.000
    N1971    N        0.31416    0.79211    0.22130    1.000
    N1972    N        0.30825    0.78538    0.15439    1.000
    Si1973   Si       0.30571    0.83489    0.21505    1.000
    N1974    N        0.33772    0.85596    0.19795    1.000
    N1975    N        0.29076    0.97169    0.11814    1.000
    Si1976   Si       0.33276    0.98013    0.12364    1.000
    N1977    N        0.31274    0.94153    0.21919    1.000
    Si1978   Si       0.28508    0.92989    0.12045    1.000
    N1979    N        0.30985    0.84704    0.25893    1.000
    N1980    N        0.29864    0.82517    0.31850    1.000
    Si1981   Si       0.29655    0.84586    0.35587    1.000
    Si1982   Si       0.33212    0.83462    0.29365    1.000
    N1983    N        0.29693    0.75871    0.29645    1.000
    N1984    N        0.29595    0.88911    0.34198    1.000
    N1985    N        0.30889    0.91710    0.28886    1.000
    Si1986   Si       0.31568    0.95281    0.26251    1.000
    Si1987   Si       0.33344    0.90292    0.31942    1.000
    N1988    N        0.29221    0.98579    0.27830    1.000
    N1989    N        0.32538    0.82546    0.38127    1.000
    Si1990   Si       0.30360    0.80227    0.41399    1.000
    Si1991   Si       0.32315    0.84128    0.47770    1.000
    N1992    N        0.32746    0.76639    0.42181    1.000
    N1993    N        0.29567    0.83448    0.44369    1.000
    N1994    N        0.29257    0.95428    0.37242    1.000
    Si1995   Si       0.30661    0.99582    0.37820    1.000
    N1996    N        0.31639    0.98130    0.45494    1.000
    N1997    N        0.29663    0.91514    0.47432    1.000
    N1998    N        0.29696    0.89415    0.41116    1.000
    Si1999   Si       0.29592    0.95868    0.48515    1.000
    Si2000   Si       0.32258    0.90110    0.44472    1.000
    Si2001   Si       0.28060    0.91300    0.37683    1.000
    Si2002   Si       0.32703    0.77993    0.52182    1.000
    N2003    N        0.30893    0.79876    0.55572    1.000
    Si2004   Si       0.31999    0.79018    0.59693    1.000
    N2005    N        0.29527    0.85406    0.50947    1.000
    N2006    N        0.32283    0.91483    0.58447    1.000
    N2007    N        0.30622    0.97037    0.52537    1.000
    Si2008   Si       0.34429    0.98448    0.53447    1.000
    N2009    N        0.30925    0.81757    0.62907    1.000
    Si2010   Si       0.32476    0.85358    0.72329    1.000
    N2011    N        0.29119    0.86839    0.70308    1.000
    N2012    N        0.33464    0.81941    0.69754    1.000
    Si2013   Si       0.33903    0.83916    0.65536    1.000
    N2014    N        0.32016    0.93604    0.70617    1.000
    Si2015   Si       0.31798    0.97251    0.67927    1.000
    N2016    N        0.32599    0.95973    0.63927    1.000
    Si2017   Si       0.28496    0.91206    0.70942    1.000
    Si2018   Si       0.33614    0.96816    0.73561    1.000
    N2019    N        0.30105    0.85686    0.82802    1.000
    N2020    N        0.31284    0.84811    0.76380    1.000
    Si2021   Si       0.30292    0.81054    0.78292    1.000
    Si2022   Si       0.32119    0.82151    0.84723    1.000
    N2023    N        0.30224    0.77869    0.75257    1.000
    Si2024   Si       0.32830    0.87292    0.79625    1.000
    N2025    N        0.33543    0.80564    0.80949    1.000
    N2026    N        0.30992    0.98087    0.76751    1.000
    N2027    N        0.31587    0.91497    0.80226    1.000
    Si2028   Si       0.33124    0.95428    0.79681    1.000
    N2029    N        0.32282    0.92163    0.86648    1.000
    Si2030   Si       0.29238    0.90230    0.83853    1.000
    N2031    N        0.33928    0.97909    0.83084    1.000
    Si2032   Si       0.31467    0.96735    0.86656    1.000
    N2033    N        0.28518    0.81290    0.87003    1.000
    N2034    N        0.31592    0.79018    0.92855    1.000
    Si2035   Si       0.30029    0.86566    0.97600    1.000
    N2036    N        0.29477    0.85739    0.93246    1.000
    Si2037   Si       0.28591    0.81860    0.91426    1.000
    N2038    N        0.28989    0.82632    0.99464    1.000
    N2039    N        0.29392    0.00475    0.99694    1.000
    Si2040   Si       0.31677    0.93635    0.93467    1.000
    N2041    N        0.32657    0.97076    0.91095    1.000
    N2042    N        0.31708    0.94724    0.97699    1.000
    Si2043   Si       0.33352    0.98648    0.98820    1.000
    N2044    N        0.37433    0.06107    0.02171    1.000
    N2045    N        0.38285    0.03551    0.08081    1.000
    Si2046   Si       0.35510    0.01053    0.05903    1.000
    Si2047   Si       0.36823    0.05005    0.11910    1.000
    N2048    N        0.34151    0.08169    0.11505    1.000
    Si2049   Si       0.37739    0.13362    0.05748    1.000
    N2050    N        0.36404    0.15471    0.09530    1.000
    Si2051   Si       0.37228    0.19991    0.01912    1.000
    N2052    N        0.38851    0.21155    0.10510    1.000
    N2053    N        0.39462    0.16480    0.03223    1.000
    Si2054   Si       0.34998    0.19817    0.08906    1.000
    N2055    N        0.39913    0.23447    0.01955    1.000
    Si2056   Si       0.39243    0.07218    0.18763    1.000
    N2057    N        0.34668    0.06477    0.18264    1.000
    Si2058   Si       0.38350    0.11482    0.24189    1.000
    N2059    N        0.34743    0.01614    0.13985    1.000
    N2060    N        0.37095    0.21955    0.22015    1.000
    Si2061   Si       0.39565    0.20598    0.18585    1.000
    N2062    N        0.37070    0.17804    0.16266    1.000
    Si2063   Si       0.39375    0.17231    0.12401    1.000
    Si2064   Si       0.38255    0.06773    0.28434    1.000
    N2065    N        0.37897    0.02656    0.28114    1.000
    N2066    N        0.35358    0.09425    0.26523    1.000
    Si2067   Si       0.37597    0.08545    0.36173    1.000
    N2068    N        0.39606    0.08130    0.32302    1.000
    Si2069   Si       0.37719    0.19797    0.25719    1.000
    N2070    N        0.39483    0.19264    0.35302    1.000
    N2071    N        0.34056    0.19857    0.27985    1.000
    N2072    N        0.39028    0.15608    0.25199    1.000
    N2073    N        0.38739    0.12638    0.37085    1.000
    N2074    N        0.34455    0.04122    0.46928    1.000
    N2075    N        0.35245    0.10586    0.43486    1.000
    N2076    N        0.39204    0.05081    0.38367    1.000
    Si2077   Si       0.38404    0.01131    0.39725    1.000
    N2078    N        0.34195    0.21247    0.46160    1.000
    Si2079   Si       0.36632    0.16392    0.37085    1.000
    Si2080   Si       0.34152    0.17602    0.48820    1.000
    Si2081   Si       0.37806    0.14018    0.44208    1.000
    N2082    N        0.36554    0.17205    0.41425    1.000
    N2083    N        0.38150    0.15886    0.48596    1.000
    Si2084   Si       0.35888    0.24306    0.49013    1.000
    N2085    N        0.36523    0.23838    0.39235    1.000
    Si2086   Si       0.36895    0.21308    0.42695    1.000
    N2087    N        0.35731    0.07530    0.59766    1.000
    Si2088   Si       0.35348    0.11323    0.57393    1.000
    Si2089   Si       0.35736    0.02603    0.57987    1.000
    N2090    N        0.35424    0.02811    0.53642    1.000
    Si2091   Si       0.37177    0.04433    0.50218    1.000
    N2092    N        0.39797    0.02512    0.60064    1.000
    N2093    N        0.39474    0.11867    0.55824    1.000
    Si2094   Si       0.39290    0.12490    0.51403    1.000
    N2095    N        0.37162    0.08904    0.50047    1.000
    N2096    N        0.36019    0.21264    0.57334    1.000
    N2097    N        0.38983    0.22407    0.51214    1.000
    Si2098   Si       0.39690    0.23046    0.55494    1.000
    N2099    N        0.34163    0.14193    0.60452    1.000
    Si2100   Si       0.39058    0.06148    0.62439    1.000
    Si2101   Si       0.38277    0.02019    0.69168    1.000
    N2102    N        0.37663    0.05326    0.66324    1.000
    N2103    N        0.36488    0.12026    0.66075    1.000
    Si2104   Si       0.34615    0.08507    0.67629    1.000
    N2105    N        0.39359    0.03772    0.73072    1.000
    Si2106   Si       0.37412    0.07418    0.74382    1.000
    N2107    N        0.40034    0.10815    0.74553    1.000
    N2108    N        0.36378    0.17164    0.74168    1.000
    Si2109   Si       0.39737    0.25127    0.71661    1.000
    Si2110   Si       0.39006    0.21133    0.65645    1.000
    N2111    N        0.35453    0.19160    0.63865    1.000
    N2112    N        0.37449    0.24587    0.67878    1.000
    N2113    N        0.35726    0.07364    0.78305    1.000
    N2114    N        0.37001    0.04564    0.84542    1.000
    Si2115   Si       0.36499    0.11990    0.85549    1.000
    Si2116   Si       0.38883    0.06912    0.81279    1.000
    N2117    N        0.39905    0.10353    0.83419    1.000
    Si2118   Si       0.38576    0.18841    0.82456    1.000
    N2119    N        0.35585    0.16318    0.85529    1.000
    N2120    N        0.37863    0.23840    0.75320    1.000
    Si2121   Si       0.34919    0.20674    0.76169    1.000
    N2122    N        0.34907    0.20842    0.80665    1.000
    Si2123   Si       0.39999    0.25023    0.78696    1.000
    N2124    N        0.36883    0.09586    0.89173    1.000
    Si2125   Si       0.36942    0.05709    0.97904    1.000
    Si2126   Si       0.37354    0.11872    0.92831    1.000
    N2127    N        0.39071    0.09347    0.95853    1.000
    N2128    N        0.37322    0.02449    0.90745    1.000
    Si2129   Si       0.38799    0.05669    0.88265    1.000
    N2130    N        0.34480    0.02218    0.96475    1.000
    N2131    N        0.34492    0.19526    0.98422    1.000
    N2132    N        0.34978    0.19353    0.91476    1.000
    Si2133   Si       0.36791    0.20892    0.95085    1.000
    Si2134   Si       0.38449    0.18235    0.89153    1.000
    N2135    N        0.36735    0.25210    0.94539    1.000
    Si2136   Si       0.37013    0.29787    0.10093    1.000
    N2137    N        0.36427    0.28890    0.05877    1.000
    Si2138   Si       0.37840    0.36262    0.06040    1.000
    N2139    N        0.36796    0.34146    0.09608    1.000
    N2140    N        0.35871    0.35843    0.02189    1.000
    Si2141   Si       0.39646    0.27550    0.03143    1.000
    N2142    N        0.38301    0.40600    0.06486    1.000
    N2143    N        0.35953    0.46592    0.04321    1.000
    Si2144   Si       0.39225    0.47151    0.01457    1.000
    Si2145   Si       0.34775    0.43045    0.06324    1.000
    Si2146   Si       0.38360    0.32335    0.19874    1.000
    N2147    N        0.35800    0.33208    0.16409    1.000
    N2148    N        0.36800    0.32991    0.23841    1.000
    Si2149   Si       0.35100    0.35994    0.13023    1.000
    Si2150   Si       0.36284    0.26396    0.22274    1.000
    N2151    N        0.39630    0.28190    0.19996    1.000
    Si2152   Si       0.35587    0.36999    0.24659    1.000
    N2153    N        0.36914    0.39631    0.14556    1.000
    N2154    N        0.34763    0.44581    0.22705    1.000
    N2155    N        0.37791    0.39070    0.21663    1.000
    N2156    N        0.37982    0.45147    0.16981    1.000
    Si2157   Si       0.35746    0.41958    0.19047    1.000
    Si2158   Si       0.37983    0.43393    0.12836    1.000
    N2159    N        0.39393    0.49537    0.22093    1.000
    Si2160   Si       0.37050    0.31457    0.27886    1.000
    N2161    N        0.35843    0.30352    0.31801    1.000
    Si2162   Si       0.35006    0.31678    0.35896    1.000
    N2163    N        0.35882    0.27151    0.26615    1.000
    N2164    N        0.36769    0.36718    0.28775    1.000
    N2165    N        0.34459    0.35801    0.35417    1.000
    N2166    N        0.39090    0.31185    0.37193    1.000
    Si2167   Si       0.35615    0.25930    0.30833    1.000
    N2168    N        0.38869    0.47381    0.34082    1.000
    N2169    N        0.35841    0.48666    0.28098    1.000
    Si2170   Si       0.35591    0.45320    0.32212    1.000
    N2171    N        0.36945    0.41387    0.33745    1.000
    Si2172   Si       0.34087    0.38597    0.31741    1.000
    Si2173   Si       0.37716    0.46533    0.24801    1.000
    N2174    N        0.39655    0.33153    0.44399    1.000
    Si2175   Si       0.38505    0.31159    0.47964    1.000
    N2176    N        0.37418    0.27320    0.46655    1.000
    Si2177   Si       0.38797    0.37344    0.43722    1.000
    N2178    N        0.34616    0.38317    0.44787    1.000
    N2179    N        0.34639    0.32902    0.49462    1.000
    N2180    N        0.35011    0.45178    0.43767    1.000
    Si2181   Si       0.37317    0.48970    0.43569    1.000
    Si2182   Si       0.38011    0.43677    0.46666    1.000
    N2183    N        0.35334    0.31626    0.56471    1.000
    Si2184   Si       0.34478    0.31496    0.60638    1.000
    Si2185   Si       0.39636    0.31015    0.55578    1.000
    Si2186   Si       0.35622    0.38776    0.59180    1.000
    N2187    N        0.35731    0.43280    0.50218    1.000
    Si2188   Si       0.37930    0.45387    0.60341    1.000
    N2189    N        0.36213    0.46297    0.56513    1.000
    Si2190   Si       0.35472    0.42620    0.54261    1.000
    N2191    N        0.38285    0.39475    0.55546    1.000
    Si2192   Si       0.35257    0.50416    0.55687    1.000
    N2193    N        0.37562    0.41497    0.61875    1.000
    N2194    N        0.38018    0.29853    0.63066    1.000
    Si2195   Si       0.35450    0.27948    0.66113    1.000
    Si2196   Si       0.37281    0.31988    0.71791    1.000
    N2197    N        0.39484    0.35633    0.70898    1.000
    Si2198   Si       0.38111    0.46162    0.71126    1.000
    Si2199   Si       0.34988    0.42985    0.65113    1.000
    N2200    N        0.36483    0.42649    0.69225    1.000
    Si2201   Si       0.36850    0.38813    0.71414    1.000
    N2202    N        0.34755    0.46827    0.63193    1.000
    N2203    N        0.36401    0.49945    0.69756    1.000
    Si2204   Si       0.37848    0.32739    0.78892    1.000
    N2205    N        0.36407    0.35749    0.81557    1.000
    Si2206   Si       0.35972    0.35395    0.85787    1.000
    N2207    N        0.35058    0.32664    0.75438    1.000
    N2208    N        0.39205    0.28957    0.80722    1.000
    Si2209   Si       0.39694    0.26887    0.84434    1.000
    N2210    N        0.38056    0.46880    0.75663    1.000
    Si2211   Si       0.37891    0.43132    0.78024    1.000
    N2212    N        0.38786    0.40167    0.75137    1.000
    N2213    N        0.35186    0.45324    0.86104    1.000
    N2214    N        0.34671    0.50058    0.80945    1.000
    Si2215   Si       0.37771    0.50606    0.77797    1.000
    N2216    N        0.36603    0.27286    0.87494    1.000
    Si2217   Si       0.37104    0.33646    0.98772    1.000
    N2218    N        0.39156    0.36640    0.88427    1.000
    N2219    N        0.38989    0.36187    0.95844    1.000
    Si2220   Si       0.35158    0.27864    0.97384    1.000
    N2221    N        0.38940    0.29820    0.99348    1.000
    Si2222   Si       0.39010    0.26098    0.90945    1.000
    Si2223   Si       0.38512    0.38487    0.92307    1.000
    N2224    N        0.35874    0.41868    0.92093    1.000
    Si2225   Si       0.34944    0.45218    0.94902    1.000
    Si2226   Si       0.37599    0.47801    0.88532    1.000
    N2227    N        0.38374    0.46697    0.97436    1.000
    N2228    N        0.34750    0.48375    0.91789    1.000
    N2229    N        0.37296    0.51707    0.09526    1.000
    N2230    N        0.39228    0.51400    0.02613    1.000
    N2231    N        0.37418    0.62610    0.01099    1.000
    Si2232   Si       0.36157    0.50878    0.05559    1.000
    N2233    N        0.38633    0.62853    0.08300    1.000
    Si2234   Si       0.35306    0.65555    0.09126    1.000
    N2235    N        0.35508    0.74165    0.03877    1.000
    N2236    N        0.35471    0.70048    0.09578    1.000
    Si2237   Si       0.37717    0.66895    0.00666    1.000
    Si2238   Si       0.38744    0.72416    0.11302    1.000
    Si2239   Si       0.34317    0.73051    0.99707    1.000
    Si2240   Si       0.35430    0.54691    0.12142    1.000
    Si2241   Si       0.38919    0.61964    0.12713    1.000
    N2242    N        0.38756    0.57530    0.12897    1.000
    N2243    N        0.38905    0.56028    0.20184    1.000
    Si2244   Si       0.36580    0.52263    0.19767    1.000
    Si2245   Si       0.40054    0.57816    0.24033    1.000
    N2246    N        0.34464    0.63222    0.12895    1.000
    N2247    N        0.37377    0.75529    0.13989    1.000
    Si2248   Si       0.37288    0.74854    0.18296    1.000
    N2249    N        0.39274    0.71422    0.20320    1.000
    Si2250   Si       0.39774    0.73613    0.24061    1.000
    N2251    N        0.35604    0.59653    0.32040    1.000
    Si2252   Si       0.37429    0.52442    0.29488    1.000
    Si2253   Si       0.39044    0.62223    0.31968    1.000
    N2254    N        0.37002    0.60494    0.25270    1.000
    N2255    N        0.33841    0.54595    0.28049    1.000
    N2256    N        0.39329    0.63438    0.36146    1.000
    N2257    N        0.35337    0.74227    0.25496    1.000
    N2258    N        0.38264    0.65458    0.29149    1.000
    Si2259   Si       0.37184    0.69458    0.30354    1.000
    N2260    N        0.38825    0.69927    0.34376    1.000
    Si2261   Si       0.36336    0.73004    0.36284    1.000
    Si2262   Si       0.37728    0.64816    0.24803    1.000
    N2263    N        0.34988    0.52399    0.44827    1.000
    Si2264   Si       0.35740    0.54537    0.40917    1.000
    N2265    N        0.37973    0.58411    0.41205    1.000
    Si2266   Si       0.36714    0.61898    0.39197    1.000
    N2267    N        0.38733    0.58712    0.48074    1.000
    N2268    N        0.38463    0.51105    0.39936    1.000
    Si2269   Si       0.34635    0.59604    0.49089    1.000
    Si2270   Si       0.34972    0.72770    0.48809    1.000
    N2271    N        0.38668    0.74070    0.39988    1.000
    N2272    N        0.36840    0.64830    0.42285    1.000
    N2273    N        0.38008    0.75279    0.46899    1.000
    N2274    N        0.35820    0.60510    0.53250    1.000
    N2275    N        0.38987    0.52395    0.56341    1.000
    Si2276   Si       0.40003    0.60210    0.51809    1.000
    Si2277   Si       0.34216    0.62367    0.56824    1.000
    N2278    N        0.35671    0.69122    0.51237    1.000
    N2279    N        0.37200    0.64429    0.59102    1.000
    N2280    N        0.36718    0.72005    0.59706    1.000
    Si2281   Si       0.39281    0.68357    0.59162    1.000
    Si2282   Si       0.39697    0.67779    0.51376    1.000
    Si2283   Si       0.37645    0.75511    0.57216    1.000
    N2284    N        0.37789    0.53113    0.62767    1.000
    Si2285   Si       0.36397    0.60132    0.69324    1.000
    N2286    N        0.35290    0.61260    0.65199    1.000
    N2287    N        0.38578    0.56477    0.68630    1.000
    Si2288   Si       0.38739    0.53265    0.71335    1.000
    Si2289   Si       0.38323    0.73973    0.73083    1.000
    Si2290   Si       0.35682    0.66817    0.72466    1.000
    Si2291   Si       0.38747    0.63193    0.62904    1.000
    N2292    N        0.38320    0.63827    0.70540    1.000
    N2293    N        0.35596    0.71035    0.71503    1.000
    N2294    N        0.34391    0.75394    0.66384    1.000
    N2295    N        0.37103    0.56359    0.82538    1.000
    Si2296   Si       0.36782    0.60345    0.83749    1.000
    N2297    N        0.36644    0.53808    0.75026    1.000
    N2298    N        0.39194    0.51196    0.86514    1.000
    N2299    N        0.39869    0.63247    0.82359    1.000
    N2300    N        0.35083    0.68834    0.83137    1.000
    Si2301   Si       0.34684    0.73030    0.84311    1.000
    N2302    N        0.36990    0.66644    0.76547    1.000
    Si2303   Si       0.36414    0.65598    0.80628    1.000
    N2304    N        0.38011    0.75319    0.82709    1.000
    N2305    N        0.36430    0.75786    0.76543    1.000
    Si2306   Si       0.35431    0.60962    0.97604    1.000
    Si2307   Si       0.38814    0.59522    0.91201    1.000
    N2308    N        0.36039    0.59568    0.88021    1.000
    N2309    N        0.37452    0.57799    0.95127    1.000
    Si2310   Si       0.38761    0.73198    0.94216    1.000
    N2311    N        0.34284    0.64034    0.94663    1.000
    N2312    N        0.38614    0.73582    0.98532    1.000
    N2313    N        0.37676    0.70142    0.91296    1.000
    Si2314   Si       0.37670    0.66241    0.93188    1.000
    Si2315   Si       0.36047    0.82751    0.06805    1.000
    N2316    N        0.35529    0.86958    0.05415    1.000
    N2317    N        0.35884    0.82093    0.11055    1.000
    N2318    N        0.39918    0.81523    0.05349    1.000
    Si2319   Si       0.39744    0.82124    0.01179    1.000
    N2320    N        0.34859    0.97635    0.08357    1.000
    Si2321   Si       0.37271    0.89007    0.01781    1.000
    N2322    N        0.39114    0.92904    0.02729    1.000
    N2323    N        0.36103    0.98775    0.02214    1.000
    Si2324   Si       0.35992    0.94288    0.05837    1.000
    N2325    N        0.38330    0.92343    0.09303    1.000
    Si2326   Si       0.39661    0.96950    0.00702    1.000
    Si2327   Si       0.38763    0.84335    0.13581    1.000
    N2328    N        0.38525    0.77939    0.21424    1.000
    N2329    N        0.37472    0.88165    0.15326    1.000
    Si2330   Si       0.37368    0.87925    0.19670    1.000
    Si2331   Si       0.35127    0.78563    0.24424    1.000
    Si2332   Si       0.34395    0.78443    0.12633    1.000
    Si2333   Si       0.34719    0.94945    0.19526    1.000
    N2334    N        0.34468    0.94696    0.15097    1.000
    Si2335   Si       0.35791    0.91314    0.12784    1.000
    N2336    N        0.37653    0.92027    0.20946    1.000
    N2337    N        0.35907    0.99181    0.20261    1.000
    Si2338   Si       0.39230    0.93777    0.24585    1.000
    N2339    N        0.35834    0.79918    0.28514    1.000
    N2340    N        0.38694    0.82952    0.34717    1.000
    Si2341   Si       0.38549    0.79319    0.32057    1.000
    N2342    N        0.35578    0.86960    0.30663    1.000
    Si2343   Si       0.39470    0.86253    0.32025    1.000
    N2344    N        0.36159    0.75826    0.33157    1.000
    N2345    N        0.36005    0.95864    0.26820    1.000
    N2346    N        0.35926    0.92094    0.34866    1.000
    Si2347   Si       0.39185    0.98715    0.28256    1.000
    Si2348   Si       0.36968    0.76916    0.42974    1.000
    Si2349   Si       0.36872    0.83484    0.38532    1.000
    N2350    N        0.38467    0.80883    0.41734    1.000
    N2351    N        0.37393    0.87513    0.39720    1.000
    N2352    N        0.35089    0.87241    0.46198    1.000
    N2353    N        0.34634    0.80700    0.49230    1.000
    N2354    N        0.40129    0.91539    0.47764    1.000
    N2355    N        0.34452    0.99586    0.39630    1.000
    N2356    N        0.35463    0.92837    0.43246    1.000
    Si2357   Si       0.39105    0.90640    0.37235    1.000
    N2358    N        0.39360    0.98949    0.43638    1.000
    Si2359   Si       0.38453    0.89539    0.44105    1.000
    Si2360   Si       0.35255    0.97156    0.43274    1.000
    Si2361   Si       0.38736    0.82153    0.61092    1.000
    N2362    N        0.36363    0.78934    0.59464    1.000
    N2363    N        0.36435    0.85715    0.59910    1.000
    Si2364   Si       0.38553    0.78745    0.50041    1.000
    N2365    N        0.36349    0.75987    0.52962    1.000
    Si2366   Si       0.34508    0.94744    0.60463    1.000
    N2367    N        0.37779    0.89035    0.53692    1.000
    Si2368   Si       0.35777    0.89126    0.57460    1.000
    N2369    N        0.38177    0.91959    0.60385    1.000
    N2370    N        0.37348    0.97009    0.50611    1.000
    Si2371   Si       0.38809    0.92949    0.51911    1.000
    N2372    N        0.35362    0.98030    0.57697    1.000
    Si2373   Si       0.36339    0.78866    0.68068    1.000
    N2374    N        0.37901    0.81925    0.65648    1.000
    N2375    N        0.39542    0.77339    0.70739    1.000
    N2376    N        0.34666    0.88038    0.66023    1.000
    Si2377   Si       0.35198    0.90916    0.69274    1.000
    Si2378   Si       0.38206    0.89628    0.63930    1.000
    N2379    N        0.35729    0.88443    0.72836    1.000
    N2380    N        0.34984    0.99258    0.70156    1.000
    N2381    N        0.38374    0.92885    0.67162    1.000
    Si2382   Si       0.37178    0.78489    0.79907    1.000
    N2383    N        0.38100    0.87857    0.86499    1.000
    N2384    N        0.37272    0.87917    0.79683    1.000
    Si2385   Si       0.40185    0.88675    0.82751    1.000
    Si2386   Si       0.37680    0.90590    0.76090    1.000
    N2387    N        0.35939    0.94648    0.76478    1.000
    N2388    N        0.35311    0.81198    0.87498    1.000
    Si2389   Si       0.34603    0.77758    0.89979    1.000
    Si2390   Si       0.38298    0.80427    0.95287    1.000
    Si2391   Si       0.38681    0.83964    0.88609    1.000
    N2392    N        0.37729    0.84181    0.92993    1.000
    N2393    N        0.38505    0.77250    0.92308    1.000
    Si2394   Si       0.36605    0.87819    0.94918    1.000
    N2395    N        0.36021    0.81245    0.98907    1.000
    N2396    N        0.34284    0.87875    0.98657    1.000
    Si2397   Si       0.38756    0.93665    0.93668    1.000
    Si2398   Si       0.36081    0.91184    0.88427    1.000
    N2399    N        0.39660    0.93745    0.89240    1.000
    Si2400   Si       0.39500    0.00421    0.94029    1.000
    N2401    N        0.35063    0.91138    0.92705    1.000
    N2402    N        0.38820    0.96824    0.96412    1.000
    N2403    N        0.43845    0.04020    0.03896    1.000
    Si2404   Si       0.43979    0.11623    0.08838    1.000
    N2405    N        0.45894    0.08194    0.10974    1.000
    N2406    N        0.45146    0.00938    0.09942    1.000
    Si2407   Si       0.44112    0.03612    0.99501    1.000
    N2408    N        0.40433    0.10123    0.07003    1.000
    Si2409   Si       0.40305    0.06226    0.05311    1.000
    N2410    N        0.45431    0.13541    0.05240    1.000
    Si2411   Si       0.43659    0.15801    0.02195    1.000
    Si2412   Si       0.41840    0.24256    0.11673    1.000
    N2413    N        0.45648    0.24261    0.09488    1.000
    N2414    N        0.45836    0.19704    0.01679    1.000
    Si2415   Si       0.43198    0.22344    0.99374    1.000
    N2416    N        0.42709    0.14709    0.11735    1.000
    Si2417   Si       0.45692    0.03823    0.19999    1.000
    Si2418   Si       0.43908    0.04648    0.12405    1.000
    N2419    N        0.41268    0.03849    0.20643    1.000
    N2420    N        0.40257    0.06067    0.14475    1.000
    N2421    N        0.40186    0.11015    0.20427    1.000
    Si2422   Si       0.43316    0.13988    0.20593    1.000
    N2423    N        0.42930    0.18167    0.19817    1.000
    N2424    N        0.45668    0.13844    0.24360    1.000
    N2425    N        0.41671    0.23220    0.15913    1.000
    N2426    N        0.41477    0.09045    0.26498    1.000
    Si2427   Si       0.42942    0.10456    0.30731    1.000
    N2428    N        0.44936    0.03568    0.33555    1.000
    Si2429   Si       0.45551    0.09356    0.25149    1.000
    Si2430   Si       0.42979    0.16672    0.26870    1.000
    Si2431   Si       0.43243    0.18048    0.33590    1.000
    N2432    N        0.43158    0.14782    0.30858    1.000
    Si2433   Si       0.43150    0.24128    0.30128    1.000
    N2434    N        0.41716    0.20750    0.27603    1.000
    N2435    N        0.45456    0.21847    0.33128    1.000
    Si2436   Si       0.40068    0.23341    0.36732    1.000
    N2437    N        0.39549    0.25346    0.32709    1.000
    Si2438   Si       0.43460    0.05152    0.37278    1.000
    N2439    N        0.40953    0.03008    0.49279    1.000
    N2440    N        0.45077    0.09089    0.38046    1.000
    Si2441   Si       0.44807    0.12283    0.46092    1.000
    Si2442   Si       0.42920    0.12750    0.38967    1.000
    Si2443   Si       0.44686    0.05000    0.49109    1.000
    N2444    N        0.44774    0.07935    0.45566    1.000
    N2445    N        0.45210    0.15886    0.36962    1.000
    N2446    N        0.41974    0.13539    0.43159    1.000
    N2447    N        0.43471    0.24836    0.38884    1.000
    Si2448   Si       0.40896    0.19619    0.48540    1.000
    N2449    N        0.40826    0.21370    0.44511    1.000
    Si2450   Si       0.44500    0.23254    0.42820    1.000
    Si2451   Si       0.42714    0.12217    0.58871    1.000
    N2452    N        0.43553    0.12613    0.50314    1.000
    N2453    N        0.42128    0.09324    0.62601    1.000
    N2454    N        0.46067    0.06548    0.52948    1.000
    N2455    N        0.43443    0.21133    0.56075    1.000
    Si2456   Si       0.43568    0.19660    0.60273    1.000
    N2457    N        0.41784    0.15722    0.61273    1.000
    N2458    N        0.44987    0.19652    0.49582    1.000
    N2459    N        0.43535    0.12065    0.68320    1.000
    Si2460   Si       0.43800    0.11270    0.72493    1.000
    Si2461   Si       0.45123    0.08758    0.65931    1.000
    Si2462   Si       0.45457    0.01408    0.66593    1.000
    N2463    N        0.45869    0.05312    0.68363    1.000
    N2464    N        0.41490    0.22861    0.62500    1.000
    N2465    N        0.40498    0.17622    0.67538    1.000
    N2466    N        0.43843    0.15585    0.73842    1.000
    Si2467   Si       0.43680    0.18145    0.70326    1.000
    Si2468   Si       0.40522    0.13680    0.65412    1.000
    N2469    N        0.42966    0.22426    0.70772    1.000
    N2470    N        0.42067    0.04664    0.79489    1.000
    Si2471   Si       0.42559    0.02197    0.75918    1.000
    Si2472   Si       0.43426    0.01254    0.82020    1.000
    N2473    N        0.40606    0.22865    0.82503    1.000
    Si2474   Si       0.42526    0.13833    0.82816    1.000
    N2475    N        0.41772    0.17370    0.85613    1.000
    Si2476   Si       0.43282    0.21949    0.86263    1.000
    N2477    N        0.39985    0.15883    0.79708    1.000
    Si2478   Si       0.39688    0.14948    0.75493    1.000
    Si2479   Si       0.43366    0.09585    0.96513    1.000
    N2480    N        0.43035    0.05579    0.89002    1.000
    N2481    N        0.40673    0.03392    0.96988    1.000
    Si2482   Si       0.44796    0.01563    0.88348    1.000
    N2483    N        0.40438    0.15030    0.91554    1.000
    N2484    N        0.40454    0.22080    0.89674    1.000
    Si2485   Si       0.44774    0.15932    0.88969    1.000
    N2486    N        0.43455    0.13720    0.98442    1.000
    Si2487   Si       0.42846    0.16344    0.95056    1.000
    N2488    N        0.40769    0.19841    0.96616    1.000
    N2489    N        0.44846    0.25880    0.97450    1.000
    N2490    N        0.41941    0.35662    0.04711    1.000
    N2491    N        0.43669    0.28875    0.03651    1.000
    Si2492   Si       0.44354    0.32998    0.02320    1.000
    N2493    N        0.41003    0.28707    0.11278    1.000
    Si2494   Si       0.44850    0.30748    0.11727    1.000
    Si2495   Si       0.42171    0.40270    0.04140    1.000
    N2496    N        0.42713    0.44989    0.02478    1.000
    N2497    N        0.41237    0.45847    0.11127    1.000
    Si2498   Si       0.45024    0.44061    0.09813    1.000
    N2499    N        0.45269    0.40743    0.07157    1.000
    Si2500   Si       0.40759    0.50178    0.11658    1.000
    N2501    N        0.44027    0.39640    0.99916    1.000
    N2502    N        0.44776    0.35049    0.12422    1.000
    N2503    N        0.42391    0.34346    0.19694    1.000
    Si2504   Si       0.44999    0.36168    0.16569    1.000
    Si2505   Si       0.43385    0.26743    0.18022    1.000
    Si2506   Si       0.41909    0.38135    0.21971    1.000
    Si2507   Si       0.40897    0.47899    0.18285    1.000
    N2508    N        0.45163    0.46863    0.18297    1.000
    N2509    N        0.44386    0.39904    0.18890    1.000
    N2510    N        0.41240    0.32135    0.29150    1.000
    N2511    N        0.44632    0.29158    0.33239    1.000
    Si2512   Si       0.41290    0.36390    0.29204    1.000
    Si2513   Si       0.40231    0.29794    0.33182    1.000
    N2514    N        0.42663    0.37578    0.33196    1.000
    N2515    N        0.43631    0.37862    0.26051    1.000
    N2516    N        0.45461    0.26565    0.27311    1.000
    Si2517   Si       0.45438    0.30449    0.29050    1.000
    Si2518   Si       0.42941    0.45954    0.35059    1.000
    Si2519   Si       0.44818    0.45282    0.27770    1.000
    N2520    N        0.41076    0.44296    0.26056    1.000
    N2521    N        0.44925    0.44286    0.31793    1.000
    N2522    N        0.45416    0.49631    0.27137    1.000
    Si2523   Si       0.39988    0.39234    0.36273    1.000
    N2524    N        0.45655    0.31619    0.39672    1.000
    Si2525   Si       0.41670    0.32796    0.40598    1.000
    N2526    N        0.41273    0.37296    0.40120    1.000
    N2527    N        0.43289    0.42331    0.37371    1.000
    N2528    N        0.44085    0.49391    0.37184    1.000
    Si2529   Si       0.44576    0.39873    0.48034    1.000
    N2530    N        0.40619    0.47110    0.45704    1.000
    N2531    N        0.40736    0.40618    0.45998    1.000
    Si2532   Si       0.44969    0.39835    0.41081    1.000
    Si2533   Si       0.44754    0.46251    0.45457    1.000
    N2534    N        0.41979    0.34371    0.57278    1.000
    N2535    N        0.41210    0.31384    0.51349    1.000
    N2536    N        0.44502    0.37638    0.51780    1.000
    Si2537   Si       0.41050    0.27189    0.61499    1.000
    Si2538   Si       0.45291    0.33336    0.51832    1.000
    N2539    N        0.40084    0.27003    0.57124    1.000
    N2540    N        0.44758    0.29299    0.61679    1.000
    Si2541   Si       0.45592    0.32562    0.59132    1.000
    Si2542   Si       0.42380    0.38408    0.55601    1.000
    N2543    N        0.41779    0.47433    0.60784    1.000
    Si2544   Si       0.45342    0.44940    0.59938    1.000
    N2545    N        0.44910    0.41072    0.57854    1.000
    Si2546   Si       0.44612    0.30812    0.70516    1.000
    N2547    N        0.40764    0.29271    0.71661    1.000
    N2548    N        0.42328    0.45765    0.69743    1.000
    N2549    N        0.45705    0.39129    0.74412    1.000
    Si2550   Si       0.44685    0.48681    0.71998    1.000
    N2551    N        0.41468    0.33801    0.76991    1.000
    Si2552   Si       0.44320    0.30601    0.77492    1.000
    N2553    N        0.44036    0.26238    0.77169    1.000
    N2554    N        0.43608    0.26620    0.86527    1.000
    Si2555   Si       0.41828    0.37224    0.74521    1.000
    Si2556   Si       0.45381    0.49208    0.79110    1.000
    N2557    N        0.40993    0.43409    0.80986    1.000
    Si2558   Si       0.44754    0.43187    0.82845    1.000
    N2559    N        0.44463    0.41300    0.86637    1.000
    N2560    N        0.45865    0.46588    0.75667    1.000
    Si2561   Si       0.45114    0.29651    0.89345    1.000
    N2562    N        0.44741    0.33205    0.97704    1.000
    Si2563   Si       0.43324    0.37605    0.88654    1.000
    N2564    N        0.41830    0.29259    0.92423    1.000
    Si2565   Si       0.42650    0.29563    0.96725    1.000
    Si2566   Si       0.43158    0.37092    0.96492    1.000
    N2567    N        0.45174    0.33783    0.87652    1.000
    N2568    N        0.45618    0.44908    0.95266    1.000
    Si2569   Si       0.44215    0.43429    0.90725    1.000
    Si2570   Si       0.41876    0.47577    0.94888    1.000
    N2571    N        0.40910    0.46142    0.90868    1.000
    N2572    N        0.43101    0.39495    0.92558    1.000
    Si2573   Si       0.41677    0.56739    0.09595    1.000
    Si2574   Si       0.42444    0.54345    0.02493    1.000
    N2575    N        0.44470    0.59988    0.10446    1.000
    N2576    N        0.40609    0.57045    0.05454    1.000
    N2577    N        0.43919    0.53283    0.10848    1.000
    Si2578   Si       0.39868    0.61358    0.04528    1.000
    N2579    N        0.43773    0.62997    0.03410    1.000
    Si2580   Si       0.44303    0.67515    0.03257    1.000
    N2581    N        0.40704    0.73892    0.07862    1.000
    N2582    N        0.40447    0.69165    0.03385    1.000
    N2583    N        0.44298    0.75119    0.02952    1.000
    Si2584   Si       0.44788    0.75385    0.07712    1.000
    Si2585   Si       0.39875    0.73491    0.03272    1.000
    N2586    N        0.44007    0.59480    0.23848    1.000
    Si2587   Si       0.41050    0.55712    0.16472    1.000
    N2588    N        0.45180    0.57421    0.16288    1.000
    Si2589   Si       0.45111    0.61511    0.14401    1.000
    N2590    N        0.45062    0.53165    0.21191    1.000
    N2591    N        0.40345    0.51254    0.15784    1.000
    Si2592   Si       0.42652    0.51490    0.24233    1.000
    N2593    N        0.45366    0.75748    0.16760    1.000
    Si2594   Si       0.41361    0.67875    0.18361    1.000
    N2595    N        0.44097    0.73957    0.23722    1.000
    N2596    N        0.41112    0.65475    0.22249    1.000
    Si2597   Si       0.44853    0.63781    0.23395    1.000
    N2598    N        0.41130    0.70281    0.14134    1.000
    Si2599   Si       0.45127    0.71908    0.14588    1.000
    N2600    N        0.41648    0.63673    0.15631    1.000
    N2601    N        0.45930    0.68994    0.17898    1.000
    N2602    N        0.42848    0.60105    0.31379    1.000
    Si2603   Si       0.42781    0.55842    0.30739    1.000
    N2604    N        0.40626    0.54368    0.26800    1.000
    Si2605   Si       0.40198    0.51074    0.36134    1.000
    Si2606   Si       0.45786    0.62078    0.33802    1.000
    N2607    N        0.39623    0.53840    0.32911    1.000
    Si2608   Si       0.44594    0.70572    0.26503    1.000
    Si2609   Si       0.41532    0.67101    0.36237    1.000
    N2610    N        0.45180    0.66373    0.33878    1.000
    Si2611   Si       0.44907    0.75241    0.32393    1.000
    N2612    N        0.40459    0.71069    0.27758    1.000
    N2613    N        0.44718    0.73720    0.36746    1.000
    Si2614   Si       0.40749    0.59228    0.44412    1.000
    N2615    N        0.44020    0.56408    0.43971    1.000
    Si2616   Si       0.45284    0.53308    0.46667    1.000
    N2617    N        0.45941    0.60273    0.37555    1.000
    N2618    N        0.40803    0.68919    0.47175    1.000
    N2619    N        0.43053    0.63008    0.44796    1.000
    N2620    N        0.44552    0.73650    0.43946    1.000
    Si2621   Si       0.42496    0.72547    0.40241    1.000
    N2622    N        0.42572    0.68159    0.40290    1.000
    Si2623   Si       0.40462    0.66542    0.43599    1.000
    Si2624   Si       0.41849    0.73012    0.47225    1.000
    Si2625   Si       0.45332    0.64316    0.48482    1.000
    N2626    N        0.42692    0.58004    0.54324    1.000
    Si2627   Si       0.42662    0.53676    0.54258    1.000
    Si2628   Si       0.41281    0.51625    0.60138    1.000
    N2629    N        0.45291    0.52836    0.57717    1.000
    N2630    N        0.43033    0.52384    0.50237    1.000
    N2631    N        0.41912    0.63980    0.51450    1.000
    Si2632   Si       0.43580    0.72869    0.54949    1.000
    N2633    N        0.43681    0.74593    0.50877    1.000
    N2634    N        0.40818    0.69511    0.55234    1.000
    N2635    N        0.43770    0.53795    0.63437    1.000
    N2636    N        0.41635    0.59953    0.63833    1.000
    N2637    N        0.44925    0.60308    0.69960    1.000
    N2638    N        0.43114    0.52771    0.72212    1.000
    Si2639   Si       0.45265    0.56722    0.72726    1.000
    Si2640   Si       0.45591    0.60745    0.65604    1.000
    Si2641   Si       0.40281    0.55909    0.64835    1.000
    N2642    N        0.44475    0.67425    0.69202    1.000
    N2643    N        0.41668    0.71314    0.74020    1.000
    Si2644   Si       0.42626    0.63824    0.71163    1.000
    Si2645   Si       0.45407    0.70721    0.71943    1.000
    Si2646   Si       0.44908    0.67775    0.64684    1.000
    N2647    N        0.40971    0.67055    0.63103    1.000
    N2648    N        0.43709    0.55898    0.83983    1.000
    N2649    N        0.45092    0.58208    0.76804    1.000
    N2650    N        0.41662    0.51594    0.79468    1.000
    Si2651   Si       0.40337    0.53476    0.83135    1.000
    N2652    N        0.43459    0.64753    0.75197    1.000
    N2653    N        0.42977    0.68968    0.80473    1.000
    Si2654   Si       0.41181    0.67959    0.76776    1.000
    Si2655   Si       0.43264    0.65860    0.83510    1.000
    N2656    N        0.44973    0.75329    0.79653    1.000
    N2657    N        0.43122    0.75069    0.87205    1.000
    Si2658   Si       0.44946    0.57132    0.87980    1.000
    Si2659   Si       0.41757    0.55815    0.95411    1.000
    N2660    N        0.42421    0.57157    0.91332    1.000
    N2661    N        0.43425    0.51667    0.94784    1.000
    N2662    N        0.43029    0.57118    0.99268    1.000
    N2663    N        0.44303    0.67815    0.87465    1.000
    N2664    N        0.40342    0.63653    0.91137    1.000
    Si2665   Si       0.45163    0.71804    0.89237    1.000
    Si2666   Si       0.44484    0.64510    0.90072    1.000
    N2667    N        0.43520    0.72307    0.93251    1.000
    Si2668   Si       0.43745    0.68870    0.95877    1.000
    N2669    N        0.39703    0.67454    0.96848    1.000
    Si2670   Si       0.43035    0.82981    0.08121    1.000
    N2671    N        0.41245    0.86047    0.10351    1.000
    N2672    N        0.44271    0.79194    0.10199    1.000
    N2673    N        0.40469    0.86348    0.00625    1.000
    N2674    N        0.43268    0.97450    0.03587    1.000
    Si2675   Si       0.41988    0.90146    0.10222    1.000
    N2676    N        0.44849    0.90656    0.06832    1.000
    Si2677   Si       0.43463    0.92982    0.03569    1.000
    N2678    N        0.45390    0.91631    0.00009    1.000
    Si2679   Si       0.45508    0.00522    0.05587    1.000
    Si2680   Si       0.41079    0.81402    0.20379    1.000
    Si2681   Si       0.44852    0.79530    0.14644    1.000
    N2682    N        0.41470    0.82003    0.16125    1.000
    N2683    N        0.45396    0.80445    0.21610    1.000
    N2684    N        0.40102    0.85324    0.22158    1.000
    Si2685   Si       0.44956    0.94151    0.17050    1.000
    Si2686   Si       0.45907    0.97198    0.23769    1.000
    N2687    N        0.42450    0.97539    0.17573    1.000
    N2688    N        0.43569    0.91320    0.13956    1.000
    Si2689   Si       0.40193    0.99589    0.20443    1.000
    N2690    N        0.41502    0.97832    0.24322    1.000
    N2691    N        0.42731    0.78436    0.31011    1.000
    N2692    N        0.42099    0.84602    0.28899    1.000
    Si2693   Si       0.45294    0.81994    0.30440    1.000
    Si2694   Si       0.42609    0.87148    0.25428    1.000
    N2695    N        0.41636    0.89339    0.34114    1.000
    N2696    N        0.42203    0.91375    0.26768    1.000
    N2697    N        0.42047    0.97068    0.31001    1.000
    Si2698   Si       0.44018    0.99278    0.34018    1.000
    Si2699   Si       0.44642    0.93851    0.29430    1.000
    Si2700   Si       0.45973    0.88410    0.34831    1.000
    N2701    N        0.42204    0.80277    0.47582    1.000
    Si2702   Si       0.41960    0.82367    0.43806    1.000
    N2703    N        0.41611    0.86381    0.45034    1.000
    N2704    N        0.44813    0.86798    0.39024    1.000
    N2705    N        0.45284    0.80261    0.41276    1.000
    Si2706   Si       0.40382    0.98771    0.47977    1.000
    N2707    N        0.44275    0.96922    0.49087    1.000
    N2708    N        0.41751    0.92416    0.40299    1.000
    Si2709   Si       0.43734    0.89061    0.47813    1.000
    N2710    N        0.41409    0.98869    0.37572    1.000
    Si2711   Si       0.42330    0.96476    0.41089    1.000
    Si2712   Si       0.45687    0.90723    0.40992    1.000
    Si2713   Si       0.43189    0.80109    0.56342    1.000
    N2714    N        0.42845    0.82720    0.59739    1.000
    Si2715   Si       0.44629    0.86253    0.61557    1.000
    N2716    N        0.42071    0.75941    0.57367    1.000
    Si2717   Si       0.40602    0.85925    0.52769    1.000
    N2718    N        0.44322    0.88049    0.51949    1.000
    N2719    N        0.40225    0.81750    0.53522    1.000
    Si2720   Si       0.45531    0.78503    0.49898    1.000
    N2721    N        0.44750    0.89713    0.58838    1.000
    N2722    N        0.41730    0.94488    0.54710    1.000
    Si2723   Si       0.42009    0.93164    0.58924    1.000
    Si2724   Si       0.45109    0.96690    0.53502    1.000
    Si2725   Si       0.43529    0.00304    0.60054    1.000
    N2726    N        0.43120    0.96318    0.61849    1.000
    N2727    N        0.45656    0.00184    0.56121    1.000
    Si2728   Si       0.41250    0.84116    0.67668    1.000
    N2729    N        0.42896    0.86160    0.71110    1.000
    Si2730   Si       0.43847    0.78226    0.70811    1.000
    N2731    N        0.41644    0.87185    0.64684    1.000
    N2732    N        0.44293    0.80971    0.67259    1.000
    Si2733   Si       0.43865    0.90270    0.71989    1.000
    Si2734   Si       0.41997    0.95307    0.66340    1.000
    N2735    N        0.44774    0.92777    0.68722    1.000
    N2736    N        0.41815    0.99493    0.67864    1.000
    Si2737   Si       0.43803    0.82801    0.83604    1.000
    N2738    N        0.44177    0.87141    0.82753    1.000
    N2739    N        0.41065    0.80344    0.81048    1.000
    Si2740   Si       0.42310    0.76045    0.82988    1.000
    N2741    N        0.41194    0.92902    0.82452    1.000
    Si2742   Si       0.43034    0.94275    0.78728    1.000
    N2743    N        0.42352    0.99020    0.85483    1.000
    N2744    N        0.42463    0.98631    0.78502    1.000
    Si2745   Si       0.42402    0.94863    0.86278    1.000
    N2746    N        0.41694    0.91749    0.75376    1.000
    N2747    N        0.42259    0.81957    0.87601    1.000
    Si2748   Si       0.42418    0.78260    0.90073    1.000
    N2749    N        0.41972    0.80501    0.97720    1.000
    N2750    N        0.45955    0.85622    0.95871    1.000
    Si2751   Si       0.45910    0.81144    0.96081    1.000
    Si2752   Si       0.43391    0.88384    0.97957    1.000
    N2753    N        0.43177    0.99243    0.92030    1.000
    N2754    N        0.40483    0.90096    0.95392    1.000
    N2755    N        0.51728    0.00737    0.11760    1.000
    Si2756   Si       0.50094    0.08799    0.12094    1.000
    N2757    N        0.49588    0.13059    0.11552    1.000
    N2758    N        0.49602    0.19225    0.08061    1.000
    Si2759   Si       0.49492    0.20869    0.04021    1.000
    Si2760   Si       0.48798    0.22019    0.11408    1.000
    N2761    N        0.49796    0.25102    0.04007    1.000
    Si2762   Si       0.49511    0.10158    0.19148    1.000
    N2763    N        0.47076    0.07581    0.21612    1.000
    N2764    N        0.46381    0.02871    0.15658    1.000
    N2765    N        0.46560    0.13042    0.17771    1.000
    Si2766   Si       0.49846    0.15221    0.23432    1.000
    N2767    N        0.46179    0.24308    0.20305    1.000
    N2768    N        0.50070    0.18809    0.20906    1.000
    N2769    N        0.47416    0.19431    0.14540    1.000
    Si2770   Si       0.46705    0.20287    0.18769    1.000
    Si2771   Si       0.46531    0.15057    0.13912    1.000
    Si2772   Si       0.48438    0.05306    0.31675    1.000
    N2773    N        0.50889    0.07395    0.34432    1.000
    N2774    N        0.46748    0.08605    0.29394    1.000
    N2775    N        0.51263    0.02595    0.29445    1.000
    Si2776   Si       0.49516    0.22280    0.34233    1.000
    N2777    N        0.51500    0.14242    0.33045    1.000
    Si2778   Si       0.49469    0.15431    0.36708    1.000
    N2779    N        0.47906    0.02816    0.47303    1.000
    Si2780   Si       0.47356    0.04934    0.43447    1.000
    Si2781   Si       0.49481    0.08619    0.38440    1.000
    N2782    N        0.50738    0.12598    0.39592    1.000
    N2783    N        0.50902    0.06338    0.41673    1.000
    N2784    N        0.45924    0.02889    0.40098    1.000
    Si2785   Si       0.51536    0.01024    0.48597    1.000
    N2786    N        0.51107    0.19330    0.37009    1.000
    N2787    N        0.47903    0.20539    0.42836    1.000
    Si2788   Si       0.48509    0.18632    0.46897    1.000
    N2789    N        0.48480    0.14348    0.46118    1.000
    Si2790   Si       0.48442    0.03694    0.55182    1.000
    N2791    N        0.50431    0.06629    0.58036    1.000
    Si2792   Si       0.47096    0.11035    0.52938    1.000
    N2793    N        0.51586    0.01760    0.52942    1.000
    N2794    N        0.51420    0.11151    0.52803    1.000
    N2795    N        0.46486    0.12915    0.56761    1.000
    Si2796   Si       0.49615    0.05667    0.62194    1.000
    Si2797   Si       0.46716    0.21647    0.53168    1.000
    N2798    N        0.47869    0.18794    0.60753    1.000
    N2799    N        0.49809    0.18798    0.54397    1.000
    Si2800   Si       0.49349    0.15803    0.57773    1.000
    Si2801   Si       0.50480    0.22163    0.60997    1.000
    N2802    N        0.47787    0.25850    0.52273    1.000
    N2803    N        0.49729    0.25754    0.59043    1.000
    N2804    N        0.46189    0.02772    0.62477    1.000
    N2805    N        0.49149    0.09524    0.64491    1.000
    Si2806   Si       0.48116    0.05124    0.71949    1.000
    N2807    N        0.47467    0.09209    0.73197    1.000
    Si2808   Si       0.51490    0.10629    0.73900    1.000
    N2809    N        0.46718    0.01828    0.74449    1.000
    N2810    N        0.49194    0.24030    0.72871    1.000
    N2811    N        0.49627    0.23397    0.65131    1.000
    Si2812   Si       0.46910    0.23423    0.69145    1.000
    Si2813   Si       0.51747    0.19681    0.67131    1.000
    N2814    N        0.47748    0.19043    0.68778    1.000
    Si2815   Si       0.48846    0.11763    0.83326    1.000
    Si2816   Si       0.50441    0.04865    0.84939    1.000
    N2817    N        0.46520    0.03017    0.84272    1.000
    N2818    N        0.51396    0.08061    0.82290    1.000
    N2819    N        0.45874    0.12222    0.86584    1.000
    N2820    N        0.45868    0.12715    0.80337    1.000
    N2821    N        0.50360    0.25112    0.79614    1.000
    N2822    N        0.51081    0.14150    0.76360    1.000
    Si2823   Si       0.47490    0.23772    0.76778    1.000
    Si2824   Si       0.46659    0.15523    0.77196    1.000
    N2825    N        0.46863    0.19742    0.77819    1.000
    Si2826   Si       0.51030    0.18969    0.85718    1.000
    N2827    N        0.50000    0.07150    0.88603    1.000
    Si2828   Si       0.50077    0.09009    0.98728    1.000
    N2829    N        0.46157    0.10425    0.93104    1.000
    Si2830   Si       0.46055    0.08748    0.89383    1.000
    N2831    N        0.46211    0.07216    0.98793    1.000
    Si2832   Si       0.48810    0.20388    0.91659    1.000
    N2833    N        0.47130    0.20177    0.87551    1.000
    N2834    N        0.50472    0.13349    0.98345    1.000
    N2835    N        0.46623    0.16874    0.92968    1.000
    Si2836   Si       0.49093    0.13387    0.94118    1.000
    N2837    N        0.50643    0.23073    0.94665    1.000
    N2838    N        0.48734    0.34068    0.02707    1.000
    Si2839   Si       0.50586    0.33249    0.06680    1.000
    N2840    N        0.47862    0.30668    0.08504    1.000
    N2841    N        0.51174    0.36810    0.09007    1.000
    Si2842   Si       0.46665    0.26946    0.06168    1.000
    Si2843   Si       0.47180    0.38104    0.10085    1.000
    N2844    N        0.47212    0.47062    0.07853    1.000
    N2845    N        0.49054    0.45485    0.01079    1.000
    Si2846   Si       0.46075    0.47384    0.03858    1.000
    Si2847   Si       0.51426    0.48357    0.07756    1.000
    N2848    N        0.49125    0.35165    0.17782    1.000
    N2849    N        0.48870    0.30117    0.22301    1.000
    Si2850   Si       0.49548    0.30773    0.18048    1.000
    N2851    N        0.50481    0.37356    0.23860    1.000
    Si2852   Si       0.47790    0.26160    0.23793    1.000
    N2853    N        0.46363    0.29189    0.15641    1.000
    Si2854   Si       0.50898    0.33138    0.24706    1.000
    N2855    N        0.46984    0.41539    0.13022    1.000
    Si2856   Si       0.51351    0.38294    0.19734    1.000
    Si2857   Si       0.46778    0.42983    0.17087    1.000
    N2858    N        0.51064    0.49316    0.21811    1.000
    N2859    N        0.50656    0.42529    0.18960    1.000
    Si2860   Si       0.47591    0.50314    0.19277    1.000
    N2861    N        0.48687    0.33131    0.28379    1.000
    N2862    N        0.51128    0.32512    0.35304    1.000
    Si2863   Si       0.51025    0.35077    0.31586    1.000
    N2864    N        0.50018    0.26064    0.36229    1.000
    Si2865   Si       0.47882    0.39023    0.26809    1.000
    N2866    N        0.48875    0.38795    0.31145    1.000
    Si2867   Si       0.50511    0.43487    0.30839    1.000
    N2868    N        0.48502    0.43328    0.26778    1.000
    N2869    N        0.50556    0.43405    0.35286    1.000
    Si2870   Si       0.46112    0.40460    0.34150    1.000
    N2871    N        0.45753    0.26305    0.45449    1.000
    Si2872   Si       0.46018    0.27899    0.37233    1.000
    Si2873   Si       0.49998    0.35289    0.46251    1.000
    Si2874   Si       0.49178    0.34041    0.39232    1.000
    Si2875   Si       0.48438    0.27840    0.48232    1.000
    N2876    N        0.47999    0.32214    0.48568    1.000
    N2877    N        0.51719    0.33400    0.42558    1.000
    N2878    N        0.46238    0.37418    0.44721    1.000
    N2879    N        0.48152    0.38092    0.38488    1.000
    N2880    N        0.51370    0.49551    0.38702    1.000
    N2881    N        0.46480    0.49949    0.44172    1.000
    Si2882   Si       0.47297    0.50672    0.39888    1.000
    Si2883   Si       0.50759    0.42771    0.44991    1.000
    N2884    N        0.46814    0.43413    0.42817    1.000
    N2885    N        0.46151    0.44005    0.49035    1.000
    Si2886   Si       0.49926    0.28189    0.55336    1.000
    N2887    N        0.47371    0.32005    0.55360    1.000
    N2888    N        0.49398    0.46599    0.59096    1.000
    Si2889   Si       0.49679    0.45706    0.51186    1.000
    N2890    N        0.49784    0.49444    0.53306    1.000
    Si2891   Si       0.47864    0.39513    0.61294    1.000
    Si2892   Si       0.48962    0.50650    0.57492    1.000
    N2893    N        0.47419    0.35392    0.61767    1.000
    N2894    N        0.46444    0.34531    0.68502    1.000
    Si2895   Si       0.49247    0.33779    0.65426    1.000
    Si2896   Si       0.47874    0.27319    0.63792    1.000
    Si2897   Si       0.48140    0.37531    0.70989    1.000
    N2898    N        0.51181    0.30164    0.64027    1.000
    N2899    N        0.47041    0.31080    0.74055    1.000
    Si2900   Si       0.51288    0.31620    0.74032    1.000
    N2901    N        0.45959    0.27552    0.68000    1.000
    Si2902   Si       0.46060    0.44575    0.67716    1.000
    N2903    N        0.46143    0.42880    0.63757    1.000
    N2904    N        0.49029    0.41470    0.69425    1.000
    N2905    N        0.47995    0.48368    0.69164    1.000
    Si2906   Si       0.47920    0.33589    0.84502    1.000
    N2907    N        0.46666    0.31773    0.80719    1.000
    N2908    N        0.50723    0.36799    0.83957    1.000
    Si2909   Si       0.50391    0.29175    0.80809    1.000
    N2910    N        0.50584    0.30117    0.85064    1.000
    Si2911   Si       0.51436    0.40888    0.82297    1.000
    Si2912   Si       0.49373    0.47676    0.86023    1.000
    N2913    N        0.47910    0.41685    0.80126    1.000
    Si2914   Si       0.47869    0.42704    0.76002    1.000
    N2915    N        0.51252    0.43696    0.85729    1.000
    N2916    N        0.46369    0.47436    0.82940    1.000
    Si2917   Si       0.49221    0.33599    0.98403    1.000
    N2918    N        0.50714    0.29393    0.98266    1.000
    Si2919   Si       0.48763    0.26829    0.95445    1.000
    N2920    N        0.48841    0.28722    0.91544    1.000
    N2921    N        0.50743    0.36959    0.96392    1.000
    Si2922   Si       0.45726    0.43383    0.99201    1.000
    N2923    N        0.50248    0.49939    0.94443    1.000
    Si2924   Si       0.49521    0.45884    0.93278    1.000
    N2925    N        0.47244    0.47408    0.89835    1.000
    Si2926   Si       0.49535    0.53874    0.03302    1.000
    N2927    N        0.47755    0.57589    0.04383    1.000
    Si2928   Si       0.48481    0.59650    0.08254    1.000
    N2929    N        0.50142    0.56727    0.11103    1.000
    N2930    N        0.45844    0.51490    0.02551    1.000
    N2931    N        0.51747    0.62622    0.07829    1.000
    Si2932   Si       0.45870    0.59865    0.01121    1.000
    N2933    N        0.51198    0.74019    0.00872    1.000
    N2934    N        0.48118    0.68951    0.05119    1.000
    Si2935   Si       0.50322    0.70956    0.08432    1.000
    Si2936   Si       0.49771    0.70058    0.01095    1.000
    N2937    N        0.46807    0.72567    0.10673    1.000
    Si2938   Si       0.47216    0.54660    0.13372    1.000
    Si2939   Si       0.46200    0.57383    0.20622    1.000
    N2940    N        0.50437    0.56708    0.21526    1.000
    N2941    N        0.49309    0.51605    0.15551    1.000
    N2942    N        0.48043    0.62411    0.20340    1.000
    N2943    N        0.48462    0.64129    0.13589    1.000
    Si2944   Si       0.48670    0.65797    0.17505    1.000
    N2945    N        0.49595    0.60788    0.32478    1.000
    Si2946   Si       0.48820    0.56998    0.34828    1.000
    N2947    N        0.46747    0.54452    0.32018    1.000
    Si2948   Si       0.48599    0.51217    0.29613    1.000
    Si2949   Si       0.48625    0.68694    0.32166    1.000
    N2950    N        0.50648    0.70464    0.35623    1.000
    N2951    N        0.46924    0.67047    0.25413    1.000
    N2952    N        0.46508    0.71837    0.30164    1.000
    Si2953   Si       0.48899    0.74213    0.36767    1.000
    Si2954   Si       0.51457    0.66806    0.25787    1.000
    N2955    N        0.51956    0.66578    0.30142    1.000
    Si2956   Si       0.50354    0.58779    0.47882    1.000
    N2957    N        0.50246    0.59484    0.43414    1.000
    Si2958   Si       0.46895    0.58179    0.41208    1.000
    N2959    N        0.49002    0.54749    0.48583    1.000
    N2960    N        0.48358    0.54872    0.38828    1.000
    N2961    N        0.50573    0.75270    0.40663    1.000
    N2962    N        0.48090    0.58940    0.58334    1.000
    N2963    N        0.47667    0.60904    0.50265    1.000
    N2964    N        0.51113    0.53478    0.60372    1.000
    Si2965   Si       0.46203    0.60730    0.54694    1.000
    Si2966   Si       0.47092    0.55501    0.61072    1.000
    Si2967   Si       0.49514    0.63570    0.59893    1.000
    N2968    N        0.47780    0.64302    0.55819    1.000
    Si2969   Si       0.49571    0.71162    0.59964    1.000
    Si2970   Si       0.49077    0.67943    0.53704    1.000
    N2971    N        0.47378    0.71212    0.56104    1.000
    N2972    N        0.48364    0.67263    0.49285    1.000
    N2973    N        0.48731    0.57758    0.64979    1.000
    N2974    N        0.49536    0.55464    0.71867    1.000
    Si2975   Si       0.51351    0.56661    0.68112    1.000
    N2976    N        0.50190    0.62112    0.75339    1.000
    N2977    N        0.46100    0.74595    0.70054    1.000
    Si2978   Si       0.48486    0.74531    0.66315    1.000
    N2979    N        0.47126    0.71374    0.63485    1.000
    N2980    N        0.47112    0.64238    0.63494    1.000
    Si2981   Si       0.49065    0.61328    0.84215    1.000
    N2982    N        0.49754    0.57296    0.82994    1.000
    N2983    N        0.48200    0.52653    0.78325    1.000
    Si2984   Si       0.45998    0.55731    0.80307    1.000
    Si2985   Si       0.51276    0.53994    0.75621    1.000
    Si2986   Si       0.46456    0.62232    0.77306    1.000
    Si2987   Si       0.51445    0.54965    0.86372    1.000
    N2988    N        0.46616    0.63652    0.81477    1.000
    N2989    N        0.49557    0.70504    0.82444    1.000
    Si2990   Si       0.46592    0.71267    0.79364    1.000
    N2991    N        0.48234    0.70328    0.75534    1.000
    N2992    N        0.46575    0.61215    0.87821    1.000
    N2993    N        0.48062    0.54302    0.89199    1.000
    N2994    N        0.48775    0.61516    0.98401    1.000
    Si2995   Si       0.46765    0.51240    0.91986    1.000
    N2996    N        0.51043    0.54838    0.99111    1.000
    N2997    N        0.46182    0.65886    0.93580    1.000
    N2998    N        0.46130    0.68515    0.99416    1.000
    Si2999   Si       0.48640    0.65537    0.97072    1.000
    N3000    N        0.49066    0.73275    0.88819    1.000
    N3001    N        0.47046    0.84116    0.07516    1.000
    Si3002   Si       0.48876    0.80606    0.09532    1.000
    Si3003   Si       0.48252    0.76831    0.02055    1.000
    N3004    N        0.48580    0.77533    0.06440    1.000
    Si3005   Si       0.48499    0.88334    0.07353    1.000
    Si3006   Si       0.50250    0.99350    0.00612    1.000
    N3007    N        0.50678    0.90455    0.10494    1.000
    N3008    N        0.51450    0.95148    0.00764    1.000
    N3009    N        0.51709    0.89244    0.04500    1.000
    N3010    N        0.49804    0.00891    0.04887    1.000
    N3011    N        0.48778    0.81041    0.14030    1.000
    Si3012   Si       0.48370    0.82802    0.23850    1.000
    N3013    N        0.46591    0.86806    0.23687    1.000
    Si3014   Si       0.46595    0.76229    0.20971    1.000
    N3015    N        0.50651    0.76123    0.22055    1.000
    N3016    N        0.48624    0.95597    0.14786    1.000
    N3017    N        0.50507    0.89679    0.18292    1.000
    Si3018   Si       0.47790    0.99508    0.13152    1.000
    N3019    N        0.46002    0.93532    0.21324    1.000
    Si3020   Si       0.51239    0.91854    0.14611    1.000
    Si3021   Si       0.48819    0.90467    0.22338    1.000
    N3022    N        0.47799    0.00601    0.22082    1.000
    N3023    N        0.48745    0.80924    0.27697    1.000
    N3024    N        0.48710    0.77190    0.33645    1.000
    N3025    N        0.47059    0.84214    0.33726    1.000
    Si3026   Si       0.51266    0.78306    0.30315    1.000
    Si3027   Si       0.51622    0.84065    0.34280    1.000
    Si3028   Si       0.50145    0.94148    0.34590    1.000
    N3029    N        0.47567    0.96427    0.27483    1.000
    N3030    N        0.47863    0.97697    0.35252    1.000
    N3031    N        0.47739    0.91540    0.31582    1.000
    Si3032   Si       0.51361    0.90813    0.29581    1.000
    Si3033   Si       0.51325    0.98384    0.28399    1.000
    Si3034   Si       0.47282    0.76915    0.43164    1.000
    N3035    N        0.48645    0.77867    0.47098    1.000
    Si3036   Si       0.46774    0.83016    0.38401    1.000
    N3037    N        0.51099    0.82916    0.38598    1.000
    Si3038   Si       0.48178    0.99394    0.39468    1.000
    N3039    N        0.46416    0.96682    0.42218    1.000
    N3040    N        0.48668    0.91284    0.37729    1.000
    N3041    N        0.50923    0.96795    0.48396    1.000
    N3042    N        0.46491    0.91171    0.45288    1.000
    Si3043   Si       0.47168    0.95412    0.46270    1.000
    N3044    N        0.46822    0.80168    0.53838    1.000
    N3045    N        0.50427    0.87657    0.56415    1.000
    Si3046   Si       0.51188    0.80229    0.54362    1.000
    Si3047   Si       0.51226    0.85189    0.59872    1.000
    N3048    N        0.48266    0.93731    0.53762    1.000
    Si3049   Si       0.46903    0.89706    0.55042    1.000
    N3050    N        0.48556    0.85548    0.63342    1.000
    Si3051   Si       0.46807    0.84840    0.72692    1.000
    N3052    N        0.49921    0.78420    0.64757    1.000
    Si3053   Si       0.48119    0.82160    0.66036    1.000
    N3054    N        0.49681    0.83938    0.69611    1.000
    N3055    N        0.45477    0.80597    0.74177    1.000
    Si3056   Si       0.48709    0.94308    0.68817    1.000
    N3057    N        0.51817    0.91663    0.66713    1.000
    N3058    N        0.48620    0.98601    0.67296    1.000
    N3059    N        0.49740    0.95253    0.72906    1.000
    N3060    N        0.47619    0.89005    0.73897    1.000
    Si3061   Si       0.50264    0.99234    0.74067    1.000
    N3062    N        0.47488    0.80811    0.82449    1.000
    Si3063   Si       0.46871    0.79115    0.78092    1.000
    N3064    N        0.51238    0.79022    0.77059    1.000
    Si3065   Si       0.51418    0.79492    0.83855    1.000
    N3066    N        0.51275    0.88844    0.83211    1.000
    N3067    N        0.47403    0.93110    0.79532    1.000
    Si3068   Si       0.47173    0.90439    0.83111    1.000
    Si3069   Si       0.49927    0.92068    0.75880    1.000
    N3070    N        0.46554    0.93037    0.86686    1.000
    Si3071   Si       0.50002    0.86680    0.94474    1.000
    Si3072   Si       0.49800    0.77171    0.90746    1.000
    N3073    N        0.48828    0.79538    0.98731    1.000
    N3074    N        0.51475    0.80230    0.88168    1.000
    N3075    N        0.46022    0.78748    0.92468    1.000
    Si3076   Si       0.49399    0.92892    0.90031    1.000
    N3077    N        0.48153    0.94365    0.94047    1.000
    N3078    N        0.46954    0.00395    0.97998    1.000
    N3079    N        0.49913    0.88614    0.90651    1.000
    Si3080   Si       0.47006    0.98660    0.93847    1.000
    N3081    N        0.48732    0.00317    0.90091    1.000
    N3082    N        0.51640    0.88957    0.97648    1.000
    Si3083   Si       0.49127    0.92608    0.98049    1.000
    Si3084   Si       0.53951    0.08961    0.05526    1.000
    N3085    N        0.56624    0.01883    0.07078    1.000
    N3086    N        0.52981    0.07593    0.01646    1.000
    Si3087   Si       0.52212    0.02693    0.07858    1.000
    N3088    N        0.52378    0.13077    0.05107    1.000
    N3089    N        0.52084    0.06944    0.08743    1.000
    Si3090   Si       0.53197    0.14933    0.01377    1.000
    Si3091   Si       0.56103    0.20950    0.10621    1.000
    N3092    N        0.55298    0.16710    0.10649    1.000
    N3093    N        0.53406    0.19365    0.02288    1.000
    Si3094   Si       0.56927    0.21936    0.02672    1.000
    Si3095   Si       0.51571    0.15451    0.08586    1.000
    N3096    N        0.57433    0.13768    0.00914    1.000
    N3097    N        0.57725    0.22790    0.07055    1.000
    Si3098   Si       0.51983    0.00943    0.21774    1.000
    N3099    N        0.53913    0.04799    0.22353    1.000
    Si3100   Si       0.55009    0.06311    0.18332    1.000
    N3101    N        0.52460    0.12108    0.21665    1.000
    Si3102   Si       0.56537    0.13029    0.20357    1.000
    N3103    N        0.57534    0.04094    0.15521    1.000
    N3104    N        0.51869    0.08366    0.16100    1.000
    N3105    N        0.52806    0.23488    0.12388    1.000
    Si3106   Si       0.53493    0.21469    0.22225    1.000
    N3107    N        0.55285    0.23143    0.18550    1.000
    N3108    N        0.57227    0.19077    0.22783    1.000
    N3109    N        0.54095    0.08678    0.28584    1.000
    Si3110   Si       0.54430    0.04421    0.26798    1.000
    Si3111   Si       0.53040    0.10464    0.32342    1.000
    Si3112   Si       0.54427    0.11836    0.25676    1.000
    N3113    N        0.57148    0.11162    0.33559    1.000
    Si3114   Si       0.53180    0.17577    0.30633    1.000
    Si3115   Si       0.53832    0.24828    0.28304    1.000
    N3116    N        0.52202    0.21743    0.30944    1.000
    N3117    N        0.52275    0.15657    0.26977    1.000
    N3118    N        0.57407    0.17585    0.31986    1.000
    N3119    N        0.51767    0.24503    0.24676    1.000
    N3120    N        0.55054    0.02412    0.46611    1.000
    Si3121   Si       0.54182    0.03577    0.42364    1.000
    N3122    N        0.54584    0.11074    0.46023    1.000
    N3123    N        0.51542    0.21437    0.48376    1.000
    Si3124   Si       0.51839    0.13441    0.43631    1.000
    Si3125   Si       0.51934    0.20357    0.41039    1.000
    N3126    N        0.54283    0.17129    0.43119    1.000
    N3127    N        0.54487    0.23744    0.41828    1.000
    Si3128   Si       0.54179    0.23861    0.46107    1.000
    Si3129   Si       0.53277    0.09758    0.56763    1.000
    Si3130   Si       0.54721    0.12499    0.50256    1.000
    N3131    N        0.56998    0.07443    0.57460    1.000
    N3132    N        0.58051    0.10496    0.51801    1.000
    N3133    N        0.53122    0.13789    0.58825    1.000
    Si3134   Si       0.53195    0.19763    0.52033    1.000
    N3135    N        0.56240    0.22287    0.53781    1.000
    N3136    N        0.54504    0.20678    0.61268    1.000
    N3137    N        0.55781    0.16590    0.50514    1.000
    Si3138   Si       0.55072    0.16372    0.61723    1.000
    Si3139   Si       0.56477    0.06044    0.65713    1.000
    Si3140   Si       0.52593    0.11702    0.66005    1.000
    Si3141   Si       0.55710    0.03915    0.73303    1.000
    N3142    N        0.56365    0.10083    0.64513    1.000
    N3143    N        0.52821    0.04014    0.64577    1.000
    N3144    N        0.53654    0.11487    0.70240    1.000
    N3145    N        0.51968    0.02392    0.71283    1.000
    Si3146   Si       0.52381    0.00688    0.67201    1.000
    Si3147   Si       0.53297    0.24792    0.72366    1.000
    N3148    N        0.54673    0.21732    0.69557    1.000
    N3149    N        0.52850    0.16044    0.65225    1.000
    Si3150   Si       0.54931    0.07919    0.79783    1.000
    N3151    N        0.56411    0.11888    0.80103    1.000
    N3152    N        0.54154    0.07330    0.75543    1.000
    N3153    N        0.53020    0.01346    0.84756    1.000
    N3154    N        0.57565    0.04270    0.80510    1.000
    Si3155   Si       0.57049    0.24334    0.85284    1.000
    Si3156   Si       0.53688    0.15178    0.79682    1.000
    N3157    N        0.53734    0.21819    0.84134    1.000
    Si3158   Si       0.54234    0.22953    0.79845    1.000
    N3159    N        0.55610    0.24367    0.75871    1.000
    N3160    N        0.56016    0.18683    0.78698    1.000
    N3161    N        0.51281    0.15352    0.83407    1.000
    Si3162   Si       0.53083    0.08561    0.91356    1.000
    Si3163   Si       0.54978    0.05335    0.98501    1.000
    N3164    N        0.52462    0.12868    0.91570    1.000
    N3165    N        0.52483    0.07408    0.95493    1.000
    N3166    N        0.57399    0.07770    0.90739    1.000
    N3167    N        0.53623    0.01165    0.98513    1.000
    N3168    N        0.55583    0.01213    0.91171    1.000
    N3169    N        0.52788    0.19193    0.90090    1.000
    N3170    N        0.56231    0.17503    0.95139    1.000
    Si3171   Si       0.55504    0.15890    0.91259    1.000
    Si3172   Si       0.54525    0.21449    0.93724    1.000
    N3173    N        0.53864    0.30521    0.05430    1.000
    Si3174   Si       0.55521    0.37365    0.09401    1.000
    Si3175   Si       0.52418    0.27957    0.01979    1.000
    N3176    N        0.56091    0.25804    0.00677    1.000
    N3177    N        0.53985    0.45572    0.05603    1.000
    Si3178   Si       0.53447    0.45416    0.01271    1.000
    Si3179   Si       0.56134    0.44934    0.09326    1.000
    N3180    N        0.56195    0.41156    0.11374    1.000
    N3181    N        0.53387    0.47377    0.11449    1.000
    N3182    N        0.54991    0.49291    0.99735    1.000
    Si3183   Si       0.56988    0.31175    0.20350    1.000
    N3184    N        0.53632    0.29607    0.17654    1.000
    N3185    N        0.55051    0.32266    0.24204    1.000
    Si3186   Si       0.54976    0.25969    0.15146    1.000
    N3187    N        0.55338    0.37710    0.18360    1.000
    N3188    N        0.55787    0.42901    0.23146    1.000
    Si3189   Si       0.53361    0.49822    0.14956    1.000
    N3190    N        0.55558    0.47311    0.17742    1.000
    Si3191   Si       0.53085    0.45539    0.20742    1.000
    N3192    N        0.55382    0.35499    0.30514    1.000
    N3193    N        0.53740    0.28893    0.30222    1.000
    Si3194   Si       0.52955    0.28771    0.34468    1.000
    Si3195   Si       0.56485    0.31779    0.28271    1.000
    N3196    N        0.56428    0.28565    0.36738    1.000
    N3197    N        0.55259    0.38677    0.36663    1.000
    N3198    N        0.54699    0.42261    0.30138    1.000
    Si3199   Si       0.52887    0.47225    0.35552    1.000
    Si3200   Si       0.56599    0.39280    0.32530    1.000
    N3201    N        0.56957    0.46656    0.36627    1.000
    N3202    N        0.56881    0.48126    0.26893    1.000
    Si3203   Si       0.57345    0.43800    0.26984    1.000
    Si3204   Si       0.54602    0.50662    0.29594    1.000
    N3205    N        0.51555    0.48241    0.31512    1.000
    Si3206   Si       0.54513    0.30862    0.44674    1.000
    N3207    N        0.54845    0.33767    0.48078    1.000
    N3208    N        0.53022    0.27825    0.47577    1.000
    Si3209   Si       0.55695    0.38023    0.48700    1.000
    Si3210   Si       0.51628    0.40674    0.38406    1.000
    N3211    N        0.51926    0.39239    0.47272    1.000
    N3212    N        0.53412    0.42975    0.41616    1.000
    N3213    N        0.52134    0.46005    0.47569    1.000
    Si3214   Si       0.56057    0.48033    0.47596    1.000
    Si3215   Si       0.56768    0.45689    0.40883    1.000
    N3216    N        0.53799    0.29899    0.54468    1.000
    N3217    N        0.55801    0.33798    0.60532    1.000
    Si3218   Si       0.55437    0.30090    0.50433    1.000
    Si3219   Si       0.56889    0.30931    0.57386    1.000
    N3220    N        0.57000    0.27568    0.60296    1.000
    N3221    N        0.56616    0.44995    0.57567    1.000
    Si3222   Si       0.56421    0.43381    0.53560    1.000
    Si3223   Si       0.52543    0.43815    0.58262    1.000
    N3224    N        0.52073    0.40212    0.60702    1.000
    N3225    N        0.57500    0.39237    0.52555    1.000
    N3226    N        0.52051    0.43122    0.53762    1.000
    Si3227   Si       0.54931    0.37589    0.62522    1.000
    Si3228   Si       0.55320    0.30408    0.63157    1.000
    N3229    N        0.53772    0.29010    0.71418    1.000
    Si3230   Si       0.55172    0.36185    0.70121    1.000
    N3231    N        0.53151    0.35957    0.66242    1.000
    N3232    N        0.51697    0.35649    0.72522    1.000
    N3233    N        0.57636    0.49553    0.62789    1.000
    Si3234   Si       0.52889    0.43116    0.70537    1.000
    N3235    N        0.53357    0.50446    0.73637    1.000
    Si3236   Si       0.51968    0.49875    0.69622    1.000
    N3237    N        0.54343    0.46459    0.68338    1.000
    N3238    N        0.56164    0.40352    0.70220    1.000
    N3239    N        0.53000    0.31403    0.78109    1.000
    Si3240   Si       0.54402    0.35647    0.85837    1.000
    Si3241   Si       0.56991    0.31043    0.79979    1.000
    N3242    N        0.57063    0.26900    0.81535    1.000
    N3243    N        0.57230    0.34487    0.82644    1.000
    N3244    N        0.55222    0.41055    0.80403    1.000
    Si3245   Si       0.55306    0.44401    0.77468    1.000
    N3246    N        0.55197    0.48037    0.79836    1.000
    Si3247   Si       0.56242    0.49280    0.83926    1.000
    N3248    N        0.57310    0.46217    0.86857    1.000
    N3249    N        0.51965    0.43281    0.74845    1.000
    N3250    N        0.52429    0.50886    0.85571    1.000
    Si3251   Si       0.52249    0.29464    0.88964    1.000
    N3252    N        0.54298    0.33398    0.89547    1.000
    N3253    N        0.55762    0.26809    0.88567    1.000
    N3254    N        0.57080    0.37169    0.94838    1.000
    N3255    N        0.52635    0.42762    0.92273    1.000
    N3256    N        0.55102    0.42413    0.98728    1.000
    Si3257   Si       0.54595    0.43168    0.88395    1.000
    Si3258   Si       0.53746    0.39847    0.95442    1.000
    N3259    N        0.56243    0.39282    0.87267    1.000
    N3260    N        0.54337    0.60216    0.01697    1.000
    Si3261   Si       0.55194    0.61074    0.05833    1.000
    N3262    N        0.56330    0.57328    0.07660    1.000
    Si3263   Si       0.53599    0.54732    0.09708    1.000
    N3264    N        0.51852    0.52318    0.06590    1.000
    Si3265   Si       0.55224    0.73893    0.02624    1.000
    N3266    N        0.54162    0.71933    0.06296    1.000
    N3267    N        0.52686    0.69266    0.11577    1.000
    Si3268   Si       0.56301    0.71605    0.10172    1.000
    Si3269   Si       0.52209    0.64961    0.11494    1.000
    N3270    N        0.57383    0.75646    0.11287    1.000
    N3271    N        0.55860    0.53209    0.13278    1.000
    N3272    N        0.55441    0.60145    0.19051    1.000
    N3273    N        0.56979    0.53661    0.22537    1.000
    Si3274   Si       0.52630    0.53253    0.23166    1.000
    Si3275   Si       0.51936    0.60890    0.21461    1.000
    N3276    N        0.52762    0.66368    0.18432    1.000
    Si3277   Si       0.55609    0.69150    0.20210    1.000
    N3278    N        0.53688    0.69954    0.23920    1.000
    Si3279   Si       0.56103    0.63845    0.17083    1.000
    N3280    N        0.56787    0.72324    0.17605    1.000
    N3281    N        0.56138    0.63577    0.12816    1.000
    N3282    N        0.53635    0.63053    0.24801    1.000
    N3283    N        0.52979    0.55988    0.34888    1.000
    N3284    N        0.56412    0.60279    0.29945    1.000
    Si3285   Si       0.56675    0.56991    0.32861    1.000
    Si3286   Si       0.53285    0.62875    0.31536    1.000
    N3287    N        0.51716    0.52995    0.27268    1.000
    Si3288   Si       0.57675    0.62654    0.26504    1.000
    N3289    N        0.55137    0.64110    0.35185    1.000
    Si3290   Si       0.56896    0.73433    0.31540    1.000
    N3291    N        0.53745    0.75011    0.29086    1.000
    Si3292   Si       0.54177    0.68089    0.36636    1.000
    Si3293   Si       0.53669    0.74181    0.24730    1.000
    Si3294   Si       0.52852    0.53693    0.38592    1.000
    N3295    N        0.54775    0.58322    0.47727    1.000
    Si3296   Si       0.54639    0.58954    0.43418    1.000
    N3297    N        0.55687    0.55103    0.41555    1.000
    N3298    N        0.56778    0.62131    0.41588    1.000
    N3299    N        0.55236    0.51835    0.49517    1.000
    N3300    N        0.57425    0.74886    0.41278    1.000
    Si3301   Si       0.53687    0.72670    0.42278    1.000
    N3302    N        0.53061    0.72500    0.46634    1.000
    Si3303   Si       0.52235    0.68870    0.48702    1.000
    N3304    N        0.54387    0.68678    0.40886    1.000
    N3305    N        0.55408    0.65877    0.47835    1.000
    Si3306   Si       0.56302    0.66034    0.43458    1.000
    N3307    N        0.53435    0.61491    0.60000    1.000
    N3308    N        0.53259    0.55332    0.54629    1.000
    Si3309   Si       0.52511    0.57317    0.58560    1.000
    N3310    N        0.56980    0.55917    0.60029    1.000
    Si3311   Si       0.51591    0.52830    0.51400    1.000
    Si3312   Si       0.57239    0.68851    0.53874    1.000
    Si3313   Si       0.53733    0.73541    0.55251    1.000
    N3314    N        0.52975    0.69608    0.53130    1.000
    Si3315   Si       0.55415    0.65465    0.60777    1.000
    N3316    N        0.52169    0.74517    0.59147    1.000
    N3317    N        0.51548    0.67494    0.59780    1.000
    N3318    N        0.54313    0.59663    0.69259    1.000
    Si3319   Si       0.54899    0.52858    0.62699    1.000
    N3320    N        0.53295    0.52881    0.66861    1.000
    Si3321   Si       0.53388    0.62572    0.72624    1.000
    N3322    N        0.53679    0.66819    0.71521    1.000
    N3323    N        0.56060    0.66795    0.64716    1.000
    Si3324   Si       0.55624    0.75621    0.67797    1.000
    N3325    N        0.52392    0.72848    0.67152    1.000
    Si3326   Si       0.54628    0.69208    0.68105    1.000
    N3327    N        0.55140    0.55246    0.77240    1.000
    Si3328   Si       0.56253    0.50942    0.76821    1.000
    N3329    N        0.53089    0.63112    0.84265    1.000
    Si3330   Si       0.56227    0.61101    0.86602    1.000
    N3331    N        0.57165    0.61353    0.74791    1.000
    Si3332   Si       0.57442    0.65024    0.77047    1.000
    Si3333   Si       0.51847    0.72432    0.85541    1.000
    Si3334   Si       0.52767    0.67069    0.82492    1.000
    N3335    N        0.53760    0.67147    0.78390    1.000
    N3336    N        0.54861    0.69353    0.85557    1.000
    Si3337   Si       0.52315    0.69314    0.74865    1.000
    N3338    N        0.54835    0.72942    0.74738    1.000
    Si3339   Si       0.56556    0.56929    0.92243    1.000
    Si3340   Si       0.52173    0.59066    0.98278    1.000
    N3341    N        0.56176    0.53380    0.94400    1.000
    N3342    N        0.54694    0.59958    0.94763    1.000
    N3343    N        0.54475    0.57422    0.88424    1.000
    Si3344   Si       0.53117    0.51750    0.96964    1.000
    N3345    N        0.52333    0.67824    0.98263    1.000
    Si3346   Si       0.56461    0.68760    0.96942    1.000
    N3347    N        0.56646    0.70105    0.92732    1.000
    Si3348   Si       0.56799    0.74408    0.92263    1.000
    N3349    N        0.57062    0.64054    0.89751    1.000
    Si3350   Si       0.57606    0.68235    0.88758    1.000
    N3351    N        0.53257    0.80755    0.09816    1.000
    N3352    N        0.56597    0.84928    0.02654    1.000
    N3353    N        0.56575    0.77572    0.04484    1.000
    Si3354   Si       0.56975    0.78986    0.08581    1.000
    N3355    N        0.57147    0.88129    0.09070    1.000
    Si3356   Si       0.54222    0.88276    0.01136    1.000
    Si3357   Si       0.55544    0.94824    0.02341    1.000
    Si3358   Si       0.54083    0.90773    0.07754    1.000
    N3359    N        0.55518    0.94621    0.06812    1.000
    N3360    N        0.57127    0.91328    0.00146    1.000
    Si3361   Si       0.53798    0.79109    0.21013    1.000
    N3362    N        0.55023    0.78766    0.16816    1.000
    Si3363   Si       0.52927    0.81288    0.14066    1.000
    N3364    N        0.56740    0.76764    0.23491    1.000
    Si3365   Si       0.53204    0.86202    0.19064    1.000
    N3366    N        0.54049    0.85251    0.15008    1.000
    Si3367   Si       0.56972    0.87826    0.13373    1.000
    N3368    N        0.56734    0.88023    0.20874    1.000
    N3369    N        0.51867    0.82940    0.21482    1.000
    Si3370   Si       0.57327    0.97436    0.22089    1.000
    N3371    N        0.54423    0.98971    0.18825    1.000
    N3372    N        0.55803    0.92078    0.14352    1.000
    Si3373   Si       0.54757    0.00250    0.14733    1.000
    Si3374   Si       0.56356    0.90053    0.24485    1.000
    N3375    N        0.54018    0.81101    0.32227    1.000
    Si3376   Si       0.57812    0.87632    0.31858    1.000
    N3377    N        0.53162    0.87751    0.32222    1.000
    N3378    N        0.52951    0.94959    0.30881    1.000
    Si3379   Si       0.56735    0.94803    0.33342    1.000
    N3380    N        0.54137    0.98856    0.25122    1.000
    N3381    N        0.51973    0.90525    0.25224    1.000
    Si3382   Si       0.55806    0.82941    0.48684    1.000
    N3383    N        0.54780    0.85812    0.45335    1.000
    Si3384   Si       0.54226    0.84101    0.41360    1.000
    N3385    N        0.55820    0.79019    0.46524    1.000
    Si3386   Si       0.52648    0.76473    0.48197    1.000
    N3387    N        0.55430    0.87455    0.38790    1.000
    N3388    N        0.54072    0.94424    0.37001    1.000
    N3389    N        0.53520    0.92603    0.42990    1.000
    Si3390   Si       0.54600    0.96295    0.40970    1.000
    Si3391   Si       0.55043    0.90117    0.46118    1.000
    Si3392   Si       0.52840    0.90785    0.39077    1.000
    N3393    N        0.52289    0.99871    0.40963    1.000
    N3394    N        0.53186    0.83381    0.52023    1.000
    Si3395   Si       0.53720    0.87543    0.53540    1.000
    N3396    N        0.52794    0.76539    0.52480    1.000
    Si3397   Si       0.52948    0.77980    0.61597    1.000
    N3398    N        0.52161    0.81206    0.58712    1.000
    N3399    N        0.57390    0.87428    0.55768    1.000
    N3400    N        0.54452    0.86977    0.62282    1.000
    N3401    N        0.55294    0.96070    0.53790    1.000
    N3402    N        0.56106    0.93137    0.60696    1.000
    N3403    N        0.53574    0.90345    0.50311    1.000
    N3404    N        0.56794    0.00191    0.58302    1.000
    Si3405   Si       0.57357    0.88970    0.59777    1.000
    Si3406   Si       0.51975    0.94285    0.51559    1.000
    Si3407   Si       0.57588    0.95671    0.57475    1.000
    Si3408   Si       0.55493    0.00587    0.54191    1.000
    Si3409   Si       0.53768    0.83074    0.70989    1.000
    N3410    N        0.56854    0.77215    0.64024    1.000
    N3411    N        0.54898    0.78779    0.70788    1.000
    N3412    N        0.55621    0.86039    0.68529    1.000
    Si3413   Si       0.52128    0.87417    0.66064    1.000
    N3414    N        0.55494    0.98054    0.65792    1.000
    Si3415   Si       0.55226    0.93690    0.64989    1.000
    N3416    N        0.53845    0.82531    0.82078    1.000
    Si3417   Si       0.54560    0.81948    0.78042    1.000
    Si3418   Si       0.54803    0.86584    0.83212    1.000
    N3419    N        0.53941    0.75926    0.83937    1.000
    N3420    N        0.54282    0.84806    0.74821    1.000
    Si3421   Si       0.54199    0.77127    0.74727    1.000
    N3422    N        0.57632    0.79242    0.76730    1.000
    Si3423   Si       0.56516    0.88517    0.75957    1.000
    N3424    N        0.54221    0.91946    0.76522    1.000
    Si3425   Si       0.56307    0.95642    0.77521    1.000
    N3426    N        0.53597    0.99122    0.77178    1.000
    Si3427   Si       0.55158    0.00702    0.81049    1.000
    N3428    N        0.57409    0.96848    0.81571    1.000
    Si3429   Si       0.54040    0.82928    0.90044    1.000
    N3430    N        0.52942    0.76167    0.93685    1.000
    N3431    N        0.56323    0.79520    0.98138    1.000
    Si3432   Si       0.52417    0.79230    0.96417    1.000
    N3433    N        0.55956    0.85939    0.87527    1.000
    N3434    N        0.57911    0.80830    0.91060    1.000
    N3435    N        0.51977    0.82939    0.93976    1.000
    Si3436   Si       0.57385    0.95392    0.91227    1.000
    N3437    N        0.53251    0.95264    0.89669    1.000
    Si3438   Si       0.52615    0.99594    0.88547    1.000
    Si3439   Si       0.57633    0.99732    0.97926    1.000
    Si3440   Si       0.60475    0.11399    0.03048    1.000
    Si3441   Si       0.59950    0.04896    0.06832    1.000
    N3442    N        0.62140    0.04622    0.10554    1.000
    N3443    N        0.61908    0.03568    0.03216    1.000
    N3444    N        0.58294    0.08697    0.05673    1.000
    N3445    N        0.62739    0.09506    0.00020    1.000
    Si3446   Si       0.63304    0.12568    0.09781    1.000
    N3447    N        0.59783    0.20170    0.99999    1.000
    N3448    N        0.59731    0.11396    0.12180    1.000
    Si3449   Si       0.59979    0.08021    0.14950    1.000
    Si3450   Si       0.60860    0.01849    0.13683    1.000
    N3451    N        0.62732    0.06514    0.23520    1.000
    N3452    N        0.58383    0.13029    0.24369    1.000
    N3453    N        0.58094    0.09298    0.18610    1.000
    N3454    N        0.57790    0.15789    0.17407    1.000
    N3455    N        0.59091    0.20978    0.13871    1.000
    Si3456   Si       0.58683    0.20158    0.18495    1.000
    Si3457   Si       0.58942    0.15756    0.13267    1.000
    N3458    N        0.62885    0.19684    0.20164    1.000
    Si3459   Si       0.61293    0.16964    0.23414    1.000
    N3460    N        0.60778    0.05808    0.34352    1.000
    N3461    N        0.62243    0.09931    0.29188    1.000
    Si3462   Si       0.60607    0.02039    0.32196    1.000
    Si3463   Si       0.61714    0.02941    0.25767    1.000
    Si3464   Si       0.58385    0.07937    0.30658    1.000
    N3465    N        0.58331    0.03999    0.28674    1.000
    Si3466   Si       0.62025    0.10486    0.25068    1.000
    N3467    N        0.63437    0.12754    0.35660    1.000
    Si3468   Si       0.59842    0.20449    0.29931    1.000
    Si3469   Si       0.59186    0.14749    0.34852    1.000
    N3470    N        0.57981    0.23879    0.27931    1.000
    N3471    N        0.62832    0.19122    0.26985    1.000
    N3472    N        0.62834    0.20656    0.32989    1.000
    Si3473   Si       0.59260    0.02583    0.47966    1.000
    Si3474   Si       0.61466    0.05127    0.38723    1.000
    N3475    N        0.60768    0.06629    0.47128    1.000
    N3476    N        0.59533    0.12093    0.41875    1.000
    Si3477   Si       0.58005    0.08813    0.44301    1.000
    N3478    N        0.57947    0.05654    0.41262    1.000
    Si3479   Si       0.63474    0.11967    0.40047    1.000
    Si3480   Si       0.62713    0.20507    0.37242    1.000
    N3481    N        0.59687    0.17521    0.38312    1.000
    N3482    N        0.61164    0.17146    0.45871    1.000
    N3483    N        0.61369    0.24410    0.38927    1.000
    N3484    N        0.58205    0.22965    0.47246    1.000
    Si3485   Si       0.59189    0.18933    0.49201    1.000
    Si3486   Si       0.58518    0.16458    0.42355    1.000
    Si3487   Si       0.59261    0.06943    0.53715    1.000
    Si3488   Si       0.58733    0.03845    0.59315    1.000
    N3489    N        0.58326    0.03131    0.52282    1.000
    N3490    N        0.63068    0.03122    0.58627    1.000
    N3491    N        0.63527    0.09420    0.61952    1.000
    N3492    N        0.63422    0.07410    0.53301    1.000
    Si3493   Si       0.62643    0.17643    0.59935    1.000
    N3494    N        0.62362    0.19507    0.52169    1.000
    Si3495   Si       0.60588    0.22628    0.54713    1.000
    N3496    N        0.60889    0.21527    0.58810    1.000
    Si3497   Si       0.58019    0.23448    0.61432    1.000
    N3498    N        0.59440    0.15340    0.61769    1.000
    Si3499   Si       0.62032    0.03716    0.70654    1.000
    Si3500   Si       0.60446    0.11791    0.63982    1.000
    N3501    N        0.59511    0.03836    0.63486    1.000
    N3502    N        0.59427    0.12334    0.74077    1.000
    N3503    N        0.61205    0.11946    0.68338    1.000
    N3504    N        0.57770    0.05916    0.69709    1.000
    Si3505   Si       0.57720    0.10388    0.70595    1.000
    N3506    N        0.59655    0.22496    0.65538    1.000
    Si3507   Si       0.58992    0.22096    0.69823    1.000
    Si3508   Si       0.62077    0.14851    0.71644    1.000
    N3509    N        0.60587    0.18943    0.72364    1.000
    Si3510   Si       0.61153    0.05147    0.77616    1.000
    Si3511   Si       0.60343    0.12233    0.78244    1.000
    N3512    N        0.62276    0.08803    0.79835    1.000
    N3513    N        0.62899    0.08769    0.86365    1.000
    N3514    N        0.59550    0.02308    0.74486    1.000
    N3515    N        0.62605    0.16007    0.78514    1.000
    N3516    N        0.61892    0.23005    0.77725    1.000
    Si3517   Si       0.59924    0.19137    0.76916    1.000
    N3518    N        0.60618    0.22163    0.86155    1.000
    Si3519   Si       0.58616    0.03894    0.92583    1.000
    N3520    N        0.62307    0.02243    0.91154    1.000
    Si3521   Si       0.60706    0.10488    0.89805    1.000
    N3522    N        0.58763    0.04109    0.96864    1.000
    Si3523   Si       0.62544    0.05096    0.99054    1.000
    N3524    N        0.59359    0.14682    0.89981    1.000
    Si3525   Si       0.62587    0.16875    0.92211    1.000
    Si3526   Si       0.59144    0.16476    0.98102    1.000
    Si3527   Si       0.61074    0.22742    0.96768    1.000
    N3528    N        0.62374    0.14638    0.95994    1.000
    N3529    N        0.57953    0.24175    0.94090    1.000
    N3530    N        0.60955    0.29120    0.06676    1.000
    Si3531   Si       0.61382    0.37551    0.04375    1.000
    N3532    N        0.58137    0.32205    0.00238    1.000
    Si3533   Si       0.57821    0.31731    0.04700    1.000
    N3534    N        0.57841    0.35834    0.06216    1.000
    Si3535   Si       0.60293    0.25691    0.09330    1.000
    N3536    N        0.60600    0.38750    0.00364    1.000
    Si3537   Si       0.62454    0.44905    0.05165    1.000
    N3538    N        0.60226    0.46236    0.08696    1.000
    N3539    N        0.59795    0.45751    0.01803    1.000
    Si3540   Si       0.59361    0.49962    0.00437    1.000
    N3541    N        0.63120    0.40833    0.06459    1.000
    N3542    N        0.60072    0.36859    0.22772    1.000
    N3543    N        0.60679    0.31957    0.17953    1.000
    N3544    N        0.59382    0.27672    0.21846    1.000
    Si3545   Si       0.60228    0.31981    0.13652    1.000
    Si3546   Si       0.63066    0.28867    0.20021    1.000
    N3547    N        0.58427    0.27834    0.12837    1.000
    N3548    N        0.57449    0.35111    0.12723    1.000
    N3549    N        0.61417    0.49056    0.14864    1.000
    Si3550   Si       0.57576    0.39043    0.14842    1.000
    Si3551   Si       0.57912    0.40082    0.20955    1.000
    Si3552   Si       0.59750    0.46408    0.17690    1.000
    N3553    N        0.61530    0.47436    0.21539    1.000
    N3554    N        0.60117    0.41915    0.17488    1.000
    Si3555   Si       0.59505    0.50500    0.23996    1.000
    N3556    N        0.60464    0.29960    0.28166    1.000
    Si3557   Si       0.60645    0.26343    0.25791    1.000
    Si3558   Si       0.62765    0.38246    0.25825    1.000
    N3559    N        0.63048    0.30810    0.34459    1.000
    N3560    N        0.62235    0.47584    0.31906    1.000
    N3561    N        0.61318    0.42048    0.27337    1.000
    N3562    N        0.60582    0.41034    0.34414    1.000
    Si3563   Si       0.61159    0.45532    0.35656    1.000
    Si3564   Si       0.62292    0.37164    0.44016    1.000
    N3565    N        0.60937    0.35952    0.40030    1.000
    Si3566   Si       0.60401    0.26529    0.46550    1.000
    N3567    N        0.58049    0.28685    0.43440    1.000
    Si3568   Si       0.57593    0.26205    0.40010    1.000
    N3569    N        0.58963    0.38894    0.46024    1.000
    N3570    N        0.60317    0.43075    0.40548    1.000
    Si3571   Si       0.59202    0.39524    0.38297    1.000
    N3572    N        0.57507    0.48765    0.43700    1.000
    N3573    N        0.60225    0.33060    0.55252    1.000
    Si3574   Si       0.60680    0.37332    0.54710    1.000
    Si3575   Si       0.62462    0.29883    0.53259    1.000
    N3576    N        0.59503    0.28787    0.50194    1.000
    N3577    N        0.63161    0.26263    0.55234    1.000
    N3578    N        0.62064    0.39290    0.58421    1.000
    Si3579   Si       0.61797    0.48338    0.52371    1.000
    Si3580   Si       0.59633    0.47955    0.59093    1.000
    N3581    N        0.58239    0.46199    0.50750    1.000
    N3582    N        0.63282    0.46182    0.60255    1.000
    N3583    N        0.59956    0.50685    0.55528    1.000
    Si3584   Si       0.62620    0.30075    0.65373    1.000
    N3585    N        0.58365    0.30080    0.66298    1.000
    N3586    N        0.58495    0.33784    0.71649    1.000
    N3587    N        0.60221    0.26108    0.71767    1.000
    Si3588   Si       0.62747    0.38121    0.62446    1.000
    Si3589   Si       0.57911    0.29695    0.70428    1.000
    Si3590   Si       0.58038    0.48060    0.66987    1.000
    N3591    N        0.62810    0.39894    0.71314    1.000
    N3592    N        0.58851    0.39035    0.64290    1.000
    Si3593   Si       0.61026    0.48421    0.73409    1.000
    Si3594   Si       0.59958    0.41078    0.68129    1.000
    N3595    N        0.61148    0.45081    0.67010    1.000
    N3596    N        0.60175    0.30621    0.76974    1.000
    Si3597   Si       0.59177    0.26480    0.76333    1.000
    N3598    N        0.60056    0.37794    0.77185    1.000
    Si3599   Si       0.61464    0.34334    0.74911    1.000
    Si3600   Si       0.58466    0.38439    0.81113    1.000
    N3601    N        0.62027    0.39798    0.83281    1.000
    Si3602   Si       0.61466    0.41453    0.75179    1.000
    N3603    N        0.58915    0.45002    0.75179    1.000
    N3604    N        0.62518    0.26695    0.97988    1.000
    Si3605   Si       0.59600    0.35508    0.97926    1.000
    N3606    N        0.61571    0.35296    0.89835    1.000
    Si3607   Si       0.59421    0.26962    0.91105    1.000
    N3608    N        0.58608    0.30382    0.93737    1.000
    Si3609   Si       0.58546    0.28607    0.97896    1.000
    Si3610   Si       0.57808    0.34112    0.91924    1.000
    N3611    N        0.62949    0.50415    0.97947    1.000
    Si3612   Si       0.59484    0.42648    0.98895    1.000
    N3613    N        0.63471    0.43719    0.97082    1.000
    Si3614   Si       0.61591    0.45944    0.87173    1.000
    Si3615   Si       0.60767    0.38910    0.87450    1.000
    N3616    N        0.62440    0.49472    0.89417    1.000
    N3617    N        0.62117    0.42418    0.89605    1.000
    Si3618   Si       0.60228    0.55707    0.06633    1.000
    N3619    N        0.60587    0.53199    0.03116    1.000
    N3620    N        0.62198    0.54274    0.10118    1.000
    N3621    N        0.62661    0.58853    0.04690    1.000
    Si3622   Si       0.62319    0.62984    0.05569    1.000
    N3623    N        0.58161    0.64054    0.06141    1.000
    Si3624   Si       0.59260    0.64955    0.10295    1.000
    N3625    N        0.59859    0.69252    0.11074    1.000
    N3626    N        0.57932    0.71691    0.99899    1.000
    N3627    N        0.63134    0.63214    0.10042    1.000
    N3628    N        0.60916    0.55676    0.17460    1.000
    Si3629   Si       0.58569    0.57405    0.20744    1.000
    N3630    N        0.60432    0.60635    0.23500    1.000
    Si3631   Si       0.60404    0.53248    0.14076    1.000
    N3632    N        0.58883    0.66186    0.19551    1.000
    Si3633   Si       0.62229    0.63680    0.20396    1.000
    Si3634   Si       0.61848    0.51583    0.30346    1.000
    N3635    N        0.59537    0.58121    0.36133    1.000
    N3636    N        0.62792    0.51904    0.26245    1.000
    N3637    N        0.57833    0.53300    0.31105    1.000
    Si3638   Si       0.63022    0.55556    0.36556    1.000
    N3639    N        0.59942    0.72988    0.28417    1.000
    Si3640   Si       0.61443    0.68685    0.35377    1.000
    N3641    N        0.59789    0.66299    0.27657    1.000
    Si3642   Si       0.62480    0.69436    0.28354    1.000
    N3643    N        0.57498    0.70307    0.34591    1.000
    Si3644   Si       0.58371    0.62059    0.37601    1.000
    N3645    N        0.60616    0.54234    0.46464    1.000
    Si3646   Si       0.59133    0.52681    0.42662    1.000
    N3647    N        0.62268    0.52325    0.39695    1.000
    N3648    N        0.62274    0.61964    0.48573    1.000
    Si3649   Si       0.57514    0.55395    0.49255    1.000
    Si3650   Si       0.59790    0.65435    0.48500    1.000
    N3651    N        0.62425    0.70882    0.38951    1.000
    N3652    N        0.61826    0.64675    0.37390    1.000
    N3653    N        0.60331    0.67295    0.44542    1.000
    Si3654   Si       0.60189    0.74660    0.37840    1.000
    N3655    N        0.59288    0.56984    0.52895    1.000
    Si3656   Si       0.62604    0.59682    0.52321    1.000
    Si3657   Si       0.57589    0.54386    0.55893    1.000
    Si3658   Si       0.61785    0.64927    0.58263    1.000
    N3659    N        0.60863    0.68196    0.51476    1.000
    N3660    N        0.62406    0.74632    0.60499    1.000
    Si3661   Si       0.61282    0.75162    0.56399    1.000
    N3662    N        0.57832    0.66080    0.57121    1.000
    N3663    N        0.57867    0.72856    0.55640    1.000
    Si3664   Si       0.60266    0.58365    0.61909    1.000
    N3665    N        0.60589    0.62780    0.61885    1.000
    N3666    N        0.59716    0.57650    0.66305    1.000
    N3667    N        0.61456    0.57280    0.72463    1.000
    Si3668   Si       0.61418    0.54541    0.68887    1.000
    Si3669   Si       0.58604    0.60039    0.69759    1.000
    N3670    N        0.59744    0.50796    0.69890    1.000
    Si3671   Si       0.58657    0.71708    0.73314    1.000
    N3672    N        0.62503    0.68910    0.64379    1.000
    Si3673   Si       0.63018    0.66008    0.72309    1.000
    N3674    N        0.60842    0.63686    0.69179    1.000
    Si3675   Si       0.60233    0.65400    0.65327    1.000
    N3676    N        0.58360    0.71859    0.69049    1.000
    Si3677   Si       0.62329    0.71586    0.67642    1.000
    N3678    N        0.59572    0.67758    0.74509    1.000
    N3679    N        0.61378    0.57690    0.79321    1.000
    N3680    N        0.60220    0.60090    0.85604    1.000
    Si3681   Si       0.62041    0.61230    0.81881    1.000
    Si3682   Si       0.62090    0.53478    0.80296    1.000
    Si3683   Si       0.58679    0.57359    0.75962    1.000
    N3684    N        0.59257    0.52017    0.83270    1.000
    N3685    N        0.60621    0.51391    0.76699    1.000
    N3686    N        0.59858    0.64798    0.80698    1.000
    N3687    N        0.60571    0.73204    0.81597    1.000
    Si3688   Si       0.61082    0.68704    0.82241    1.000
    N3689    N        0.61952    0.74243    0.75092    1.000
    N3690    N        0.61305    0.68383    0.86529    1.000
    N3691    N        0.60336    0.59120    0.92203    1.000
    Si3692   Si       0.62827    0.60463    0.89153    1.000
    Si3693   Si       0.58038    0.62586    0.93886    1.000
    Si3694   Si       0.62738    0.75554    0.91177    1.000
    N3695    N        0.59063    0.74659    0.88567    1.000
    Si3696   Si       0.63014    0.65940    0.98638    1.000
    Si3697   Si       0.61700    0.73298    0.98396    1.000
    N3698    N        0.59185    0.65262    0.97065    1.000
    N3699    N        0.60446    0.75664    0.94835    1.000
    N3700    N        0.60027    0.82141    0.08217    1.000
    N3701    N        0.62114    0.80556    0.01416    1.000
    Si3702   Si       0.59224    0.85895    0.05948    1.000
    N3703    N        0.62980    0.86362    0.03561    1.000
    Si3704   Si       0.57686    0.80770    0.02086    1.000
    N3705    N        0.62084    0.97417    0.07336    1.000
    Si3706   Si       0.62286    0.99275    0.03594    1.000
    N3707    N        0.58684    0.97913    0.01499    1.000
    Si3708   Si       0.57949    0.97899    0.08558    1.000
    Si3709   Si       0.60598    0.86378    0.19545    1.000
    N3710    N        0.60772    0.82839    0.22185    1.000
    N3711    N        0.62036    0.77133    0.17147    1.000
    N3712    N        0.60760    0.86802    0.15172    1.000
    Si3713   Si       0.57992    0.75953    0.15705    1.000
    Si3714   Si       0.63014    0.79212    0.20709    1.000
    Si3715   Si       0.62216    0.93171    0.22208    1.000
    N3716    N        0.63366    0.89024    0.21632    1.000
    N3717    N        0.60665    0.95336    0.18716    1.000
    N3718    N        0.58191    0.98230    0.12936    1.000
    N3719    N        0.62746    0.92169    0.12112    1.000
    N3720    N        0.58552    0.93838    0.24255    1.000
    Si3721   Si       0.59551    0.94448    0.14557    1.000
    N3722    N        0.60657    0.00126    0.22753    1.000
    Si3723   Si       0.60757    0.83926    0.26436    1.000
    N3724    N        0.59743    0.80342    0.28446    1.000
    N3725    N        0.59522    0.84313    0.33905    1.000
    Si3726   Si       0.60031    0.76737    0.26195    1.000
    N3727    N        0.58446    0.76449    0.34299    1.000
    N3728    N        0.58119    0.87241    0.27494    1.000
    Si3729   Si       0.58319    0.80374    0.32522    1.000
    N3730    N        0.59342    0.91313    0.33412    1.000
    N3731    N        0.59114    0.98394    0.34018    1.000
    Si3732   Si       0.62943    0.90620    0.35686    1.000
    Si3733   Si       0.59195    0.85290    0.38175    1.000
    N3734    N        0.62733    0.80100    0.44527    1.000
    Si3735   Si       0.58582    0.78661    0.43223    1.000
    N3736    N        0.62647    0.87666    0.39083    1.000
    N3737    N        0.57831    0.81751    0.40329    1.000
    N3738    N        0.59006    0.91900    0.46329    1.000
    N3739    N        0.58628    0.97332    0.41476    1.000
    Si3740   Si       0.60998    0.97592    0.37885    1.000
    N3741    N        0.61735    0.99025    0.47359    1.000
    Si3742   Si       0.60304    0.95748    0.45033    1.000
    Si3743   Si       0.62968    0.90496    0.47307    1.000
    Si3744   Si       0.60966    0.86576    0.53303    1.000
    N3745    N        0.60189    0.79213    0.56305    1.000
    N3746    N        0.59954    0.83649    0.50119    1.000
    N3747    N        0.61825    0.95780    0.56363    1.000
    N3748    N        0.61477    0.89710    0.60955    1.000
    N3749    N        0.62779    0.90098    0.51679    1.000
    Si3750   Si       0.61167    0.77535    0.63457    1.000
    N3751    N        0.62943    0.85805    0.68040    1.000
    N3752    N        0.63347    0.80828    0.72585    1.000
    N3753    N        0.63238    0.81217    0.62349    1.000
    Si3754   Si       0.59348    0.99732    0.65071    1.000
    N3755    N        0.58879    0.92250    0.67038    1.000
    N3756    N        0.62017    0.97364    0.62669    1.000
    N3757    N        0.60825    0.99738    0.68959    1.000
    Si3758   Si       0.61841    0.98442    0.72933    1.000
    Si3759   Si       0.59281    0.88236    0.68820    1.000
    N3760    N        0.60369    0.88594    0.73157    1.000
    Si3761   Si       0.61977    0.92930    0.63903    1.000
    N3762    N        0.60901    0.79763    0.84329    1.000
    Si3763   Si       0.61725    0.78542    0.75742    1.000
    Si3764   Si       0.58494    0.75769    0.84468    1.000
    N3765    N        0.57630    0.87240    0.79980    1.000
    Si3766   Si       0.61541    0.88497    0.81384    1.000
    N3767    N        0.60498    0.90652    0.84775    1.000
    Si3768   Si       0.60630    0.94911    0.84136    1.000
    N3769    N        0.59805    0.95351    0.75208    1.000
    Si3770   Si       0.62654    0.92036    0.74566    1.000
    Si3771   Si       0.59318    0.80018    0.95139    1.000
    N3772    N        0.62685    0.85886    0.89710    1.000
    Si3773   Si       0.61304    0.81982    0.88334    1.000
    N3774    N        0.61188    0.83732    0.95879    1.000
    Si3775   Si       0.62947    0.84459    0.99857    1.000
    N3776    N        0.58578    0.91264    0.92058    1.000
    N3777    N        0.63719    0.92189    0.97862    1.000
    Si3778   Si       0.59469    0.92358    0.96638    1.000
    N3779    N        0.60126    0.96617    0.88019    1.000
    N3780    N        0.58311    0.96405    0.95359    1.000
    Si3781   Si       0.59576    0.88550    0.88517    1.000
    N3782    N        0.66614    0.10058    0.10804    1.000
    N3783    N        0.69250    0.03156    0.12446    1.000
    N3784    N        0.67274    0.16401    0.00459    1.000
    N3785    N        0.67017    0.20014    0.06514    1.000
    Si3786   Si       0.66707    0.16107    0.04768    1.000
    Si3787   Si       0.65090    0.20211    0.10606    1.000
    N3788    N        0.68584    0.23746    0.00476    1.000
    N3789    N        0.64294    0.24680    0.10644    1.000
    N3790    N        0.62808    0.16624    0.11408    1.000
    N3791    N        0.63238    0.13697    0.05684    1.000
    Si3792   Si       0.65953    0.06020    0.12352    1.000
    Si3793   Si       0.65640    0.05994    0.20176    1.000
    N3794    N        0.67030    0.01896    0.20731    1.000
    N3795    N        0.64088    0.06829    0.16348    1.000
    N3796    N        0.69079    0.08651    0.21324    1.000
    Si3797   Si       0.68532    0.12920    0.22282    1.000
    N3798    N        0.69233    0.14820    0.18336    1.000
    Si3799   Si       0.65456    0.22995    0.21158    1.000
    N3800    N        0.64416    0.13736    0.23480    1.000
    N3801    N        0.67946    0.20555    0.13982    1.000
    Si3802   Si       0.67085    0.25071    0.13971    1.000
    N3803    N        0.65142    0.25880    0.17578    1.000
    N3804    N        0.67510    0.06826    0.33477    1.000
    Si3805   Si       0.68056    0.02902    0.31570    1.000
    N3806    N        0.64230    0.02009    0.29476    1.000
    Si3807   Si       0.63649    0.09008    0.33402    1.000
    Si3808   Si       0.66071    0.19809    0.30094    1.000
    Si3809   Si       0.67130    0.15366    0.35127    1.000
    N3810    N        0.68448    0.16298    0.31166    1.000
    N3811    N        0.68291    0.23528    0.30120    1.000
    N3812    N        0.67725    0.25537    0.36609    1.000
    N3813    N        0.67429    0.06915    0.47402    1.000
    Si3814   Si       0.68101    0.07157    0.43100    1.000
    N3815    N        0.64388    0.07695    0.40541    1.000
    Si3816   Si       0.63727    0.09093    0.49306    1.000
    N3817    N        0.63497    0.01179    0.38297    1.000
    N3818    N        0.67597    0.19421    0.47159    1.000
    N3819    N        0.66270    0.13619    0.42772    1.000
    Si3820   Si       0.65191    0.15939    0.46263    1.000
    N3821    N        0.66626    0.18742    0.38000    1.000
    Si3822   Si       0.68133    0.23824    0.46467    1.000
    Si3823   Si       0.65814    0.05414    0.56000    1.000
    Si3824   Si       0.66287    0.11810    0.59590    1.000
    N3825    N        0.68291    0.08473    0.57880    1.000
    N3826    N        0.68319    0.02676    0.53699    1.000
    N3827    N        0.64978    0.13147    0.49753    1.000
    Si3828   Si       0.65472    0.16220    0.53147    1.000
    N3829    N        0.64466    0.15043    0.57235    1.000
    N3830    N        0.69103    0.24116    0.59236    1.000
    N3831    N        0.69082    0.13916    0.62102    1.000
    Si3832   Si       0.64918    0.09506    0.69805    1.000
    N3833    N        0.68480    0.03695    0.62868    1.000
    Si3834   Si       0.64073    0.05220    0.63063    1.000
    N3835    N        0.68970    0.09699    0.67752    1.000
    N3836    N        0.65416    0.01145    0.72828    1.000
    N3837    N        0.64196    0.05535    0.67421    1.000
    N3838    N        0.63611    0.07172    0.73384    1.000
    N3839    N        0.65684    0.23456    0.69042    1.000
    N3840    N        0.65428    0.19300    0.62879    1.000
    Si3841   Si       0.64082    0.22882    0.65097    1.000
    N3842    N        0.66149    0.13588    0.72124    1.000
    Si3843   Si       0.64722    0.06830    0.82836    1.000
    N3844    N        0.65120    0.03524    0.78968    1.000
    N3845    N        0.64857    0.02951    0.85415    1.000
    Si3846   Si       0.67221    0.04726    0.75186    1.000
    N3847    N        0.68973    0.08039    0.82931    1.000
    Si3848   Si       0.65731    0.23860    0.79212    1.000
    Si3849   Si       0.66738    0.16330    0.80291    1.000
    N3850    N        0.67971    0.14858    0.84205    1.000
    N3851    N        0.67818    0.20373    0.80331    1.000
    Si3852   Si       0.64471    0.24190    0.86291    1.000
    N3853    N        0.68409    0.03999    0.90968    1.000
    Si3854   Si       0.67405    0.11336    0.92291    1.000
    N3855    N        0.65344    0.02714    0.96854    1.000
    Si3856   Si       0.64716    0.05449    0.89403    1.000
    N3857    N        0.68591    0.11019    0.96503    1.000
    Si3858   Si       0.65335    0.12895    0.98476    1.000
    N3859    N        0.63981    0.08778    0.92190    1.000
    Si3860   Si       0.66355    0.00643    0.93201    1.000
    N3861    N        0.63602    0.20859    0.93730    1.000
    Si3862   Si       0.67487    0.22280    0.92742    1.000
    Si3863   Si       0.68523    0.17649    0.87543    1.000
    N3864    N        0.67499    0.21695    0.88284    1.000
    N3865    N        0.66305    0.15277    0.90847    1.000
    Si3866   Si       0.64491    0.31592    0.07284    1.000
    N3867    N        0.68718    0.30657    0.07037    1.000
    N3868    N        0.68665    0.36932    0.09817    1.000
    N3869    N        0.64096    0.34501    0.04029    1.000
    Si3870   Si       0.66132    0.34380    0.00041    1.000
    N3871    N        0.68359    0.30670    0.99960    1.000
    N3872    N        0.64039    0.32349    0.11671    1.000
    N3873    N        0.66715    0.48917    0.10044    1.000
    N3874    N        0.66070    0.46171    0.03520    1.000
    Si3875   Si       0.66518    0.40550    0.09054    1.000
    Si3876   Si       0.68973    0.46767    0.06879    1.000
    Si3877   Si       0.63287    0.46817    0.11533    1.000
    N3878    N        0.66269    0.31735    0.20384    1.000
    N3879    N        0.64967    0.37245    0.16424    1.000
    Si3880   Si       0.67163    0.34895    0.13488    1.000
    N3881    N        0.65991    0.37708    0.23152    1.000
    Si3882   Si       0.63458    0.35395    0.20187    1.000
    N3883    N        0.64760    0.42878    0.12476    1.000
    Si3884   Si       0.65743    0.46870    0.22124    1.000
    N3885    N        0.66826    0.43888    0.19013    1.000
    Si3886   Si       0.64341    0.41464    0.16455    1.000
    N3887    N        0.68005    0.50403    0.21820    1.000
    N3888    N        0.67798    0.30907    0.28804    1.000
    N3889    N        0.66016    0.37024    0.36112    1.000
    Si3890   Si       0.68177    0.26834    0.27206    1.000
    Si3891   Si       0.64057    0.27418    0.37077    1.000
    Si3892   Si       0.63637    0.32000    0.30346    1.000
    N3893    N        0.63276    0.36225    0.29789    1.000
    N3894    N        0.64814    0.25746    0.24455    1.000
    Si3895   Si       0.64149    0.39167    0.32774    1.000
    N3896    N        0.66909    0.42496    0.31739    1.000
    N3897    N        0.67165    0.45110    0.26148    1.000
    Si3898   Si       0.64031    0.44744    0.29066    1.000
    Si3899   Si       0.68551    0.44350    0.35319    1.000
    Si3900   Si       0.65787    0.30201    0.44661    1.000
    N3901    N        0.65618    0.30131    0.40263    1.000
    N3902    N        0.64613    0.26307    0.46025    1.000
    Si3903   Si       0.63788    0.33637    0.37698    1.000
    N3904    N        0.63853    0.33686    0.46186    1.000
    Si3905   Si       0.65980    0.35099    0.49641    1.000
    N3906    N        0.69255    0.43947    0.49562    1.000
    Si3907   Si       0.65696    0.49739    0.40010    1.000
    N3908    N        0.65818    0.47316    0.43774    1.000
    N3909    N        0.65092    0.46091    0.37684    1.000
    N3910    N        0.65585    0.39983    0.43373    1.000
    Si3911   Si       0.67828    0.47840    0.47636    1.000
    Si3912   Si       0.64629    0.43740    0.41571    1.000
    N3913    N        0.66161    0.31321    0.51800    1.000
    N3914    N        0.67257    0.30688    0.58564    1.000
    Si3915   Si       0.65701    0.26585    0.58885    1.000
    Si3916   Si       0.67885    0.33021    0.62145    1.000
    N3917    N        0.64105    0.38065    0.52048    1.000
    Si3918   Si       0.64291    0.42905    0.57720    1.000
    Si3919   Si       0.66408    0.41815    0.52149    1.000
    N3920    N        0.68121    0.41450    0.56329    1.000
    N3921    N        0.63562    0.44755    0.53753    1.000
    N3922    N        0.64730    0.50138    0.49656    1.000
    N3923    N        0.63849    0.33947    0.63319    1.000
    Si3924   Si       0.68964    0.31934    0.69013    1.000
    N3925    N        0.63941    0.26690    0.62938    1.000
    Si3926   Si       0.64723    0.26726    0.71841    1.000
    N3927    N        0.68327    0.36182    0.68186    1.000
    N3928    N        0.64962    0.30099    0.69342    1.000
    Si3929   Si       0.66715    0.38241    0.71662    1.000
    N3930    N        0.65972    0.34978    0.74510    1.000
    N3931    N        0.65422    0.47891    0.72803    1.000
    N3932    N        0.67785    0.47562    0.66196    1.000
    N3933    N        0.69068    0.41737    0.71639    1.000
    N3934    N        0.65567    0.41053    0.64001    1.000
    Si3935   Si       0.67248    0.50407    0.69448    1.000
    Si3936   Si       0.64646    0.45184    0.64335    1.000
    Si3937   Si       0.69230    0.38885    0.65046    1.000
    N3938    N        0.65443    0.26227    0.82732    1.000
    N3939    N        0.69066    0.32716    0.80950    1.000
    N3940    N        0.66983    0.26208    0.75550    1.000
    Si3941   Si       0.68984    0.28721    0.82704    1.000
    Si3942   Si       0.69550    0.33571    0.76378    1.000
    N3943    N        0.69310    0.40436    0.83561    1.000
    Si3944   Si       0.65309    0.41913    0.81901    1.000
    N3945    N        0.65021    0.42633    0.77422    1.000
    Si3946   Si       0.67458    0.48820    0.83428    1.000
    N3947    N        0.64236    0.45965    0.83844    1.000
    Si3948   Si       0.67822    0.44728    0.74667    1.000
    Si3949   Si       0.66945    0.26920    0.98124    1.000
    Si3950   Si       0.65043    0.35474    0.92453    1.000
    N3951    N        0.68224    0.32978    0.90920    1.000
    Si3952   Si       0.67527    0.28903    0.90238    1.000
    N3953    N        0.68066    0.26591    0.93837    1.000
    N3954    N        0.63700    0.34528    0.96467    1.000
    N3955    N        0.63534    0.27172    0.89465    1.000
    N3956    N        0.67715    0.46491    0.92792    1.000
    N3957    N        0.69192    0.49537    0.98360    1.000
    Si3958   Si       0.66465    0.50011    0.90500    1.000
    Si3959   Si       0.64807    0.43134    0.92975    1.000
    N3960    N        0.67042    0.39346    0.92770    1.000
    Si3961   Si       0.65403    0.46901    0.99422    1.000
    Si3962   Si       0.66780    0.53384    0.10245    1.000
    N3963    N        0.67403    0.54360    0.05919    1.000
    Si3964   Si       0.64659    0.55415    0.02776    1.000
    Si3965   Si       0.67651    0.67938    0.04606    1.000
    N3966    N        0.65831    0.70720    0.07435    1.000
    Si3967   Si       0.66858    0.74847    0.08714    1.000
    Si3968   Si       0.63952    0.70134    0.11405    1.000
    N3969    N        0.64190    0.65998    0.02905    1.000
    N3970    N        0.65276    0.74743    0.00371    1.000
    N3971    N        0.65975    0.57091    0.22036    1.000
    Si3972   Si       0.64891    0.57480    0.17778    1.000
    N3973    N        0.66959    0.55090    0.14738    1.000
    Si3974   Si       0.66329    0.53517    0.24357    1.000
    N3975    N        0.63960    0.61686    0.17121    1.000
    Si3976   Si       0.65917    0.63146    0.13521    1.000
    Si3977   Si       0.68901    0.70848    0.15260    1.000
    N3978    N        0.66366    0.67397    0.13907    1.000
    N3979    N        0.69211    0.69984    0.19556    1.000
    Si3980   Si       0.68282    0.67731    0.23334    1.000
    N3981    N        0.65765    0.64318    0.23049    1.000
    N3982    N        0.66152    0.73718    0.12972    1.000
    N3983    N        0.64502    0.54125    0.32789    1.000
    Si3984   Si       0.67487    0.56576    0.30855    1.000
    N3985    N        0.65499    0.59823    0.28901    1.000
    Si3986   Si       0.64686    0.60299    0.24881    1.000
    Si3987   Si       0.68092    0.71724    0.32064    1.000
    N3988    N        0.65975    0.70529    0.26005    1.000
    Si3989   Si       0.67171    0.75029    0.26169    1.000
    N3990    N        0.64234    0.69484    0.32338    1.000
    N3991    N        0.68842    0.72182    0.36300    1.000
    N3992    N        0.68775    0.64048    0.36535    1.000
    N3993    N        0.68723    0.75735    0.30261    1.000
    N3994    N        0.65719    0.63409    0.42627    1.000
    Si3995   Si       0.68993    0.56311    0.40873    1.000
    Si3996   Si       0.64697    0.54133    0.47704    1.000
    N3997    N        0.66238    0.58319    0.37886    1.000
    N3998    N        0.66790    0.56671    0.44503    1.000
    Si3999   Si       0.65276    0.62475    0.38476    1.000
    Si4000   Si       0.66177    0.60765    0.46328    1.000
    Si4001   Si       0.66535    0.73350    0.39772    1.000
    N4002    N        0.67384    0.70011    0.42453    1.000
    Si4003   Si       0.63680    0.67629    0.41873    1.000
    N4004    N        0.69566    0.73718    0.49360    1.000
    Si4005   Si       0.67036    0.59997    0.58494    1.000
    N4006    N        0.65670    0.57016    0.50716    1.000
    N4007    N        0.64233    0.57331    0.60918    1.000
    N4008    N        0.63895    0.62062    0.55842    1.000
    N4009    N        0.69248    0.52466    0.61603    1.000
    N4010    N        0.64213    0.73912    0.53307    1.000
    Si4011   Si       0.64252    0.69529    0.53544    1.000
    N4012    N        0.64618    0.68406    0.57943    1.000
    N4013    N        0.68176    0.67643    0.52745    1.000
    Si4014   Si       0.64834    0.70987    0.61382    1.000
    Si4015   Si       0.69388    0.67310    0.56978    1.000
    Si4016   Si       0.67034    0.55593    0.63851    1.000
    Si4017   Si       0.65210    0.59089    0.73902    1.000
    N4018    N        0.68425    0.59307    0.70774    1.000
    N4019    N        0.65404    0.53863    0.67491    1.000
    N4020    N        0.68607    0.70990    0.63662    1.000
    N4021    N        0.65071    0.69083    0.70069    1.000
    Si4022   Si       0.68498    0.68814    0.67465    1.000
    N4023    N        0.66112    0.52044    0.80958    1.000
    N4024    N        0.66449    0.61948    0.81722    1.000
    N4025    N        0.67862    0.56442    0.76240    1.000
    Si4026   Si       0.68979    0.59618    0.84448    1.000
    N4027    N        0.65108    0.63433    0.75038    1.000
    Si4028   Si       0.66869    0.65109    0.78820    1.000
    N4029    N        0.68304    0.73665    0.79746    1.000
    N4030    N        0.68691    0.68614    0.85510    1.000
    N4031    N        0.64750    0.68759    0.79720    1.000
    Si4032   Si       0.63997    0.73214    0.78784    1.000
    Si4033   Si       0.68822    0.59901    0.97955    1.000
    N4034    N        0.66331    0.58237    0.87655    1.000
    Si4035   Si       0.66389    0.52689    0.97008    1.000
    N4036    N        0.67250    0.53576    0.92839    1.000
    Si4037   Si       0.69056    0.56760    0.90650    1.000
    N4038    N        0.66803    0.56230    0.99207    1.000
    N4039    N        0.69065    0.50404    0.87081    1.000
    N4040    N        0.65841    0.63187    0.96946    1.000
    N4041    N        0.64980    0.64330    0.90280    1.000
    Si4042   Si       0.68053    0.64108    0.93377    1.000
    Si4043   Si       0.65104    0.68651    0.88423    1.000
    Si4044   Si       0.67698    0.71641    0.98581    1.000
    N4045    N        0.65602    0.72621    0.90279    1.000
    N4046    N        0.63985    0.69704    0.96874    1.000
    Si4047   Si       0.65655    0.78300    0.02526    1.000
    N4048    N        0.66055    0.86023    0.09303    1.000
    N4049    N        0.64980    0.78032    0.06742    1.000
    Si4050   Si       0.64340    0.81745    0.08911    1.000
    Si4051   Si       0.66530    0.87957    0.05395    1.000
    N4052    N        0.69379    0.80632    0.02298    1.000
    N4053    N        0.65943    0.98260    0.01663    1.000
    N4054    N        0.65411    0.92198    0.05200    1.000
    Si4055   Si       0.66026    0.94031    0.01128    1.000
    Si4056   Si       0.64841    0.94355    0.08952    1.000
    N4057    N        0.68226    0.96206    0.10560    1.000
    Si4058   Si       0.69714    0.84012    0.11969    1.000
    N4059    N        0.66839    0.80525    0.12373    1.000
    N4060    N        0.67509    0.86761    0.15223    1.000
    Si4061   Si       0.66496    0.77518    0.15733    1.000
    N4062    N        0.66525    0.80832    0.19057    1.000
    Si4063   Si       0.69004    0.84427    0.18548    1.000
    N4064    N        0.63725    0.76752    0.24126    1.000
    Si4065   Si       0.64273    0.88207    0.12985    1.000
    Si4066   Si       0.63822    0.98883    0.19750    1.000
    N4067    N        0.64032    0.99708    0.15496    1.000
    Si4068   Si       0.68101    0.99000    0.13747    1.000
    N4069    N        0.65795    0.95762    0.22240    1.000
    N4070    N        0.64707    0.85147    0.27677    1.000
    Si4071   Si       0.67258    0.85511    0.31217    1.000
    N4072    N        0.69370    0.82451    0.33436    1.000
    Si4073   Si       0.66322    0.87512    0.24426    1.000
    Si4074   Si       0.68759    0.95348    0.25269    1.000
    N4075    N        0.65992    0.89236    0.33037    1.000
    N4076    N        0.67918    0.91258    0.26201    1.000
    Si4077   Si       0.69341    0.91317    0.30593    1.000
    Si4078   Si       0.63499    0.82596    0.47880    1.000
    N4079    N        0.64781    0.86708    0.45995    1.000
    Si4080   Si       0.65631    0.79703    0.41436    1.000
    Si4081   Si       0.66077    0.86932    0.41819    1.000
    N4082    N        0.67636    0.83364    0.40085    1.000
    N4083    N        0.68175    0.76416    0.42833    1.000
    N4084    N        0.63958    0.76874    0.38483    1.000
    Si4085   Si       0.66888    0.93960    0.41276    1.000
    N4086    N        0.63889    0.94351    0.38045    1.000
    Si4087   Si       0.65860    0.97236    0.47921    1.000
    N4088    N        0.68976    0.90274    0.41555    1.000
    N4089    N        0.68679    0.00424    0.47299    1.000
    N4090    N        0.64797    0.94071    0.45138    1.000
    Si4091   Si       0.67696    0.00487    0.38589    1.000
    N4092    N        0.67155    0.78959    0.56468    1.000
    Si4093   Si       0.67469    0.76528    0.52347    1.000
    N4094    N        0.66608    0.80306    0.50003    1.000
    Si4095   Si       0.64926    0.88105    0.59144    1.000
    Si4096   Si       0.63692    0.81232    0.57781    1.000
    N4097    N        0.63793    0.85191    0.56307    1.000
    Si4098   Si       0.64434    0.93097    0.54336    1.000
    N4099    N        0.67154    0.91402    0.57352    1.000
    N4100    N        0.66635    0.95855    0.51918    1.000
    N4101    N        0.67985    0.98409    0.58991    1.000
    Si4102   Si       0.69294    0.98408    0.54577    1.000
    Si4103   Si       0.63694    0.98840    0.59092    1.000
    N4104    N        0.67245    0.86503    0.62329    1.000
    N4105    N        0.68088    0.81103    0.67642    1.000
    Si4106   Si       0.65261    0.83724    0.65161    1.000
    Si4107   Si       0.65947    0.77878    0.69865    1.000
    N4108    N        0.68634    0.76000    0.72728    1.000
    N4109    N        0.66959    0.86829    0.74754    1.000
    N4110    N        0.63213    0.75702    0.67142    1.000
    Si4111   Si       0.63618    0.85076    0.72376    1.000
    N4112    N        0.66007    0.92725    0.65515    1.000
    N4113    N        0.65063    0.94610    0.72099    1.000
    Si4114   Si       0.68208    0.93463    0.69080    1.000
    Si4115   Si       0.68415    0.98212    0.73332    1.000
    Si4116   Si       0.69003    0.89681    0.64663    1.000
    N4117    N        0.65037    0.78902    0.78663    1.000
    N4118    N        0.68036    0.80616    0.85055    1.000
    Si4119   Si       0.64551    0.81152    0.82392    1.000
    N4120    N        0.64739    0.85313    0.81607    1.000
    Si4121   Si       0.68624    0.77103    0.77063    1.000
    Si4122   Si       0.67750    0.87394    0.79197    1.000
    N4123    N        0.64545    0.96635    0.83097    1.000
    Si4124   Si       0.66941    0.93843    0.80465    1.000
    N4125    N        0.69043    0.96237    0.77213    1.000
    Si4126   Si       0.66538    0.00553    0.82119    1.000
    N4127    N        0.63852    0.91193    0.78679    1.000
    N4128    N        0.64094    0.79741    0.91038    1.000
    N4129    N        0.66788    0.85600    0.97774    1.000
    N4130    N        0.68661    0.84155    0.91747    1.000
    Si4131   Si       0.68106    0.80501    0.89401    1.000
    Si4132   Si       0.64549    0.84150    0.93368    1.000
    Si4133   Si       0.63449    0.99287    0.87631    1.000
    N4134    N        0.68599    0.90913    0.92688    1.000
    N4135    N        0.66588    0.97585    0.89764    1.000
    N4136    N        0.68963    0.97742    0.95493    1.000
    Si4137   Si       0.67095    0.89946    0.96627    1.000
    Si4138   Si       0.68808    0.00585    0.99295    1.000
    N4139    N        0.69624    0.92299    0.99412    1.000
    N4140    N        0.72164    0.06903    0.07573    1.000
    Si4141   Si       0.72705    0.03200    0.09705    1.000
    Si4142   Si       0.73243    0.06148    0.03377    1.000
    Si4143   Si       0.70415    0.10600    0.09159    1.000
    N4144    N        0.73953    0.09396    0.00489    1.000
    N4145    N        0.70056    0.04766    0.00742    1.000
    N4146    N        0.70398    0.13774    0.06131    1.000
    N4147    N        0.72792    0.19394    0.02577    1.000
    Si4148   Si       0.73879    0.15458    0.04268    1.000
    Si4149   Si       0.70069    0.22487    0.04404    1.000
    N4150    N        0.73003    0.24662    0.06628    1.000
    N4151    N        0.73079    0.11797    0.12547    1.000
    N4152    N        0.74153    0.03261    0.20028    1.000
    Si4153   Si       0.73159    0.07408    0.20993    1.000
    N4154    N        0.74961    0.11176    0.19222    1.000
    N4155    N        0.74190    0.17936    0.16559    1.000
    N4156    N        0.69708    0.21982    0.20620    1.000
    Si4157   Si       0.72873    0.13766    0.16326    1.000
    Si4158   Si       0.69910    0.19046    0.17488    1.000
    Si4159   Si       0.72781    0.24755    0.21829    1.000
    N4160    N        0.72398    0.10569    0.30989    1.000
    Si4161   Si       0.71169    0.09105    0.34914    1.000
    N4162    N        0.71617    0.03271    0.29077    1.000
    Si4163   Si       0.73698    0.07272    0.28582    1.000
    N4164    N        0.74446    0.06906    0.36712    1.000
    N4165    N        0.69975    0.12678    0.36930    1.000
    N4166    N        0.75064    0.08622    0.24820    1.000
    Si4167   Si       0.72074    0.14650    0.29529    1.000
    Si4168   Si       0.70573    0.24379    0.33739    1.000
    N4169    N        0.72751    0.21074    0.35794    1.000
    N4170    N        0.71379    0.14083    0.25214    1.000
    N4171    N        0.71675    0.09687    0.42573    1.000
    N4172    N        0.69370    0.03488    0.41212    1.000
    Si4173   Si       0.74995    0.07160    0.41055    1.000
    Si4174   Si       0.70364    0.20468    0.39496    1.000
    N4175    N        0.70477    0.23618    0.42520    1.000
    Si4176   Si       0.70193    0.13453    0.41081    1.000
    Si4177   Si       0.74371    0.24428    0.45229    1.000
    N4178    N        0.71839    0.23571    0.48853    1.000
    N4179    N        0.72153    0.17230    0.41771    1.000
    Si4180   Si       0.72170    0.07084    0.59235    1.000
    N4181    N        0.73843    0.02808    0.58650    1.000
    N4182    N        0.73940    0.03986    0.50495    1.000
    N4183    N        0.75079    0.08463    0.56108    1.000
    Si4184   Si       0.69666    0.03884    0.49635    1.000
    N4185    N        0.74968    0.17428    0.50478    1.000
    Si4186   Si       0.74481    0.25205    0.52318    1.000
    Si4187   Si       0.73194    0.23515    0.59226    1.000
    Si4188   Si       0.74019    0.17938    0.54876    1.000
    N4189    N        0.74623    0.22214    0.55385    1.000
    N4190    N        0.73097    0.19521    0.61129    1.000
    N4191    N        0.69568    0.17517    0.53596    1.000
    Si4192   Si       0.71059    0.19333    0.49789    1.000
    Si4193   Si       0.73121    0.05308    0.73193    1.000
    N4194    N        0.73526    0.04742    0.68915    1.000
    Si4195   Si       0.71407    0.11679    0.64948    1.000
    N4196    N        0.73443    0.08265    0.63109    1.000
    Si4197   Si       0.70528    0.05747    0.66108    1.000
    Si4198   Si       0.69754    0.12452    0.74147    1.000
    Si4199   Si       0.69784    0.22196    0.70000    1.000
    N4200    N        0.74735    0.14435    0.65509    1.000
    Si4201   Si       0.69574    0.18159    0.63263    1.000
    N4202    N        0.70349    0.18703    0.67504    1.000
    Si4203   Si       0.74038    0.17033    0.68867    1.000
    N4204    N        0.71025    0.21261    0.74164    1.000
    N4205    N        0.73257    0.14850    0.72655    1.000
    N4206    N        0.72161    0.25301    0.68234    1.000
    Si4207   Si       0.72238    0.05153    0.82816    1.000
    Si4208   Si       0.70552    0.11324    0.85157    1.000
    N4209    N        0.74685    0.12245    0.84247    1.000
    N4210    N        0.71150    0.01853    0.75189    1.000
    N4211    N        0.70908    0.00873    0.82204    1.000
    N4212    N        0.74062    0.05346    0.86752    1.000
    N4213    N        0.70072    0.08131    0.74787    1.000
    N4214    N        0.69951    0.14918    0.77797    1.000
    Si4215   Si       0.72710    0.17726    0.76039    1.000
    Si4216   Si       0.71512    0.25355    0.76119    1.000
    Si4217   Si       0.71208    0.07852    0.97616    1.000
    Si4218   Si       0.71975    0.06378    0.90335    1.000
    N4219    N        0.73603    0.06882    0.94267    1.000
    N4220    N        0.70198    0.10160    0.89350    1.000
    N4221    N        0.70956    0.20342    0.94985    1.000
    Si4222   Si       0.73994    0.19853    0.91871    1.000
    N4223    N        0.72640    0.17146    0.88716    1.000
    Si4224   Si       0.69650    0.19617    0.99135    1.000
    Si4225   Si       0.71595    0.28068    0.08813    1.000
    Si4226   Si       0.72031    0.34709    0.07986    1.000
    N4227    N        0.73334    0.35532    0.03842    1.000
    Si4228   Si       0.72076    0.33415    0.00208    1.000
    N4229    N        0.74622    0.31306    0.08747    1.000
    Si4230   Si       0.72384    0.50380    0.01118    1.000
    N4231    N        0.72480    0.48264    0.04864    1.000
    Si4232   Si       0.73495    0.41693    0.10710    1.000
    N4233    N        0.70114    0.42996    0.08283    1.000
    N4234    N        0.73035    0.28318    0.19166    1.000
    N4235    N        0.72438    0.34045    0.22365    1.000
    N4236    N        0.71010    0.34122    0.15576    1.000
    Si4237   Si       0.70487    0.31811    0.19324    1.000
    Si4238   Si       0.73810    0.37225    0.15222    1.000
    Si4239   Si       0.74543    0.27676    0.15189    1.000
    N4240    N        0.70702    0.27035    0.12751    1.000
    Si4241   Si       0.70244    0.37534    0.23606    1.000
    Si4242   Si       0.71112    0.43596    0.18395    1.000
    N4243    N        0.72356    0.41342    0.14871    1.000
    N4244    N        0.73434    0.47139    0.18788    1.000
    N4245    N        0.72258    0.40759    0.21515    1.000
    N4246    N        0.71918    0.34428    0.33776    1.000
    N4247    N        0.73253    0.27464    0.32415    1.000
    Si4248   Si       0.74001    0.30784    0.34997    1.000
    Si4249   Si       0.70984    0.34028    0.29643    1.000
    N4250    N        0.72278    0.26578    0.25555    1.000
    Si4251   Si       0.74963    0.28191    0.28571    1.000
    N4252    N        0.70542    0.37973    0.27858    1.000
    N4253    N        0.73937    0.44060    0.28566    1.000
    N4254    N        0.71509    0.47384    0.34484    1.000
    Si4255   Si       0.69858    0.42299    0.28212    1.000
    Si4256   Si       0.74787    0.47482    0.31514    1.000
    Si4257   Si       0.70312    0.37096    0.36823    1.000
    Si4258   Si       0.73417    0.31844    0.42544    1.000
    N4259    N        0.72845    0.29564    0.38807    1.000
    N4260    N        0.71025    0.35641    0.40958    1.000
    N4261    N        0.69994    0.29719    0.44579    1.000
    N4262    N        0.69821    0.36718    0.48150    1.000
    Si4263   Si       0.69458    0.27338    0.40478    1.000
    Si4264   Si       0.73958    0.42573    0.40205    1.000
    Si4265   Si       0.73107    0.42491    0.48107    1.000
    Si4266   Si       0.72756    0.49806    0.37980    1.000
    N4267    N        0.71667    0.49936    0.47756    1.000
    N4268    N        0.71208    0.41433    0.37107    1.000
    Si4269   Si       0.74947    0.48481    0.44977    1.000
    N4270    N        0.73775    0.47011    0.41155    1.000
    N4271    N        0.72560    0.41094    0.44028    1.000
    Si4272   Si       0.69481    0.38090    0.44197    1.000
    N4273    N        0.71142    0.35166    0.54721    1.000
    N4274    N        0.72476    0.28608    0.53795    1.000
    Si4275   Si       0.72949    0.36170    0.50934    1.000
    N4276    N        0.69818    0.36701    0.61360    1.000
    Si4277   Si       0.69336    0.31383    0.54792    1.000
    Si4278   Si       0.71003    0.38428    0.57606    1.000
    N4279    N        0.72906    0.46368    0.61061    1.000
    N4280    N        0.74832    0.40260    0.58345    1.000
    N4281    N        0.75054    0.39834    0.51132    1.000
    Si4282   Si       0.74897    0.47962    0.57634    1.000
    Si4283   Si       0.73644    0.28015    0.65437    1.000
    N4284    N        0.70130    0.30621    0.65049    1.000
    N4285    N        0.71423    0.31831    0.72678    1.000
    Si4286   Si       0.75506    0.30388    0.72118    1.000
    Si4287   Si       0.74839    0.42623    0.62084    1.000
    N4288    N        0.72774    0.41165    0.65492    1.000
    N4289    N        0.74323    0.46527    0.69718    1.000
    Si4290   Si       0.71019    0.49286    0.63853    1.000
    Si4291   Si       0.73045    0.42411    0.69799    1.000
    Si4292   Si       0.74769    0.50675    0.69478    1.000
    N4293    N        0.73446    0.35153    0.85590    1.000
    N4294    N        0.71377    0.37231    0.77841    1.000
    Si4295   Si       0.70988    0.36553    0.82190    1.000
    N4296    N        0.71957    0.26654    0.80248    1.000
    N4297    N        0.70474    0.28237    0.87056    1.000
    N4298    N        0.71897    0.44915    0.76568    1.000
    N4299    N        0.71437    0.47305    0.82485    1.000
    Si4300   Si       0.72855    0.43267    0.83589    1.000
    Si4301   Si       0.73997    0.47965    0.78906    1.000
    Si4302   Si       0.73461    0.40786    0.76530    1.000
    Si4303   Si       0.74560    0.27442    0.88547    1.000
    Si4304   Si       0.72463    0.34152    0.90013    1.000
    N4305    N        0.73533    0.37379    0.92561    1.000
    N4306    N        0.74953    0.31038    0.98049    1.000
    N4307    N        0.75174    0.30872    0.91160    1.000
    N4308    N        0.69628    0.36674    0.98615    1.000
    N4309    N        0.72575    0.43216    0.95864    1.000
    N4310    N        0.74456    0.44592    0.87543    1.000
    Si4311   Si       0.70661    0.39275    0.95190    1.000
    N4312    N        0.73684    0.49460    0.91939    1.000
    Si4313   Si       0.73146    0.48825    0.87665    1.000
    Si4314   Si       0.71399    0.47326    0.95112    1.000
    Si4315   Si       0.71679    0.55679    0.06460    1.000
    N4316    N        0.73591    0.54221    0.02730    1.000
    N4317    N        0.74305    0.59521    0.06802    1.000
    N4318    N        0.71464    0.54300    0.10575    1.000
    N4319    N        0.72200    0.60895    0.00523    1.000
    Si4320   Si       0.75039    0.57538    0.00284    1.000
    Si4321   Si       0.73985    0.62831    0.04197    1.000
    N4322    N        0.70220    0.69369    0.01304    1.000
    Si4323   Si       0.73978    0.74276    0.10521    1.000
    Si4324   Si       0.74618    0.68947    0.00775    1.000
    N4325    N        0.70317    0.64744    0.05831    1.000
    N4326    N        0.72385    0.60426    0.20373    1.000
    Si4327   Si       0.71317    0.56465    0.14214    1.000
    Si4328   Si       0.72830    0.62158    0.16426    1.000
    N4329    N        0.73480    0.53821    0.17024    1.000
    N4330    N        0.74879    0.51869    0.23550    1.000
    Si4331   Si       0.72000    0.51047    0.20098    1.000
    N4332    N        0.69587    0.60869    0.13644    1.000
    N4333    N        0.70642    0.75583    0.23781    1.000
    Si4334   Si       0.71682    0.73394    0.20301    1.000
    N4335    N        0.72552    0.70775    0.12677    1.000
    Si4336   Si       0.75080    0.66922    0.21312    1.000
    N4337    N        0.74442    0.65925    0.17063    1.000
    N4338    N        0.71217    0.58304    0.32524    1.000
    Si4339   Si       0.73573    0.53898    0.27043    1.000
    Si4340   Si       0.70397    0.60078    0.36094    1.000
    Si4341   Si       0.74949    0.59526    0.30593    1.000
    N4342    N        0.69224    0.54172    0.27509    1.000
    N4343    N        0.71388    0.68704    0.31712    1.000
    Si4344   Si       0.74197    0.67584    0.28620    1.000
    Si4345   Si       0.70602    0.67973    0.36168    1.000
    N4346    N        0.72289    0.66963    0.24731    1.000
    N4347    N        0.72360    0.58874    0.39803    1.000
    N4348    N        0.69889    0.61137    0.48380    1.000
    N4349    N        0.69333    0.52075    0.39481    1.000
    N4350    N        0.71855    0.67271    0.46611    1.000
    N4351    N        0.73996    0.72994    0.43562    1.000
    Si4352   Si       0.73408    0.63401    0.47253    1.000
    Si4353   Si       0.71714    0.69326    0.42924    1.000
    N4354    N        0.73606    0.67973    0.39074    1.000
    Si4355   Si       0.71062    0.75506    0.45688    1.000
    N4356    N        0.73606    0.56338    0.51158    1.000
    Si4357   Si       0.71419    0.54090    0.58217    1.000
    Si4358   Si       0.73553    0.52004    0.51276    1.000
    Si4359   Si       0.73068    0.60335    0.61061    1.000
    N4360    N        0.75046    0.56267    0.59594    1.000
    N4361    N        0.72556    0.50933    0.55395    1.000
    Si4362   Si       0.69817    0.58329    0.51824    1.000
    N4363    N        0.69497    0.57505    0.56148    1.000
    N4364    N        0.70192    0.63289    0.58953    1.000
    N4365    N        0.72059    0.70713    0.58152    1.000
    N4366    N        0.74551    0.69914    0.52242    1.000
    Si4367   Si       0.74478    0.72997    0.55280    1.000
    Si4368   Si       0.70860    0.69672    0.49974    1.000
    Si4369   Si       0.72481    0.72550    0.62046    1.000
    N4370    N        0.74737    0.51581    0.65098    1.000
    Si4371   Si       0.70733    0.60663    0.67549    1.000
    N4372    N        0.71049    0.52418    0.70878    1.000
    Si4373   Si       0.70876    0.56236    0.72964    1.000
    N4374    N        0.70090    0.58732    0.63659    1.000
    N4375    N        0.75072    0.60681    0.68587    1.000
    N4376    N        0.74808    0.57502    0.74077    1.000
    Si4377   Si       0.72324    0.73974    0.71752    1.000
    N4378    N        0.72011    0.70536    0.69173    1.000
    N4379    N        0.75044    0.65122    0.73287    1.000
    Si4380   Si       0.73926    0.66410    0.69427    1.000
    N4381    N        0.70286    0.64846    0.67420    1.000
    N4382    N        0.71297    0.56367    0.82706    1.000
    N4383    N        0.72794    0.51916    0.77474    1.000
    Si4384   Si       0.74572    0.55733    0.85768    1.000
    Si4385   Si       0.69523    0.54087    0.79341    1.000
    Si4386   Si       0.74505    0.67991    0.76646    1.000
    N4387    N        0.70879    0.67132    0.79119    1.000
    N4388    N        0.74137    0.72088    0.75354    1.000
    N4389    N        0.74150    0.72550    0.82608    1.000
    Si4390   Si       0.70126    0.70386    0.81809    1.000
    Si4391   Si       0.74858    0.74640    0.78813    1.000
    N4392    N        0.71856    0.61656    0.86926    1.000
    Si4393   Si       0.74261    0.59715    0.93276    1.000
    N4394    N        0.73357    0.56238    0.90051    1.000
    N4395    N        0.69904    0.59857    0.93683    1.000
    Si4396   Si       0.75007    0.53425    0.93046    1.000
    N4397    N        0.70338    0.72239    0.95313    1.000
    Si4398   Si       0.71611    0.65952    0.87485    1.000
    N4399    N        0.71239    0.66477    0.91776    1.000
    N4400    N        0.73807    0.72226    0.89969    1.000
    Si4401   Si       0.69701    0.73492    0.91363    1.000
    Si4402   Si       0.73643    0.69815    0.93529    1.000
    N4403    N        0.72244    0.82899    0.08507    1.000
    Si4404   Si       0.71603    0.79660    0.05964    1.000
    N4405    N        0.70242    0.87275    0.03245    1.000
    Si4406   Si       0.70521    0.84143    0.99956    1.000
    N4407    N        0.70905    0.75900    0.07904    1.000
    N4408    N        0.72767    0.98614    0.00205    1.000
    N4409    N        0.73246    0.92437    0.06308    1.000
    Si4410   Si       0.72568    0.90896    0.02323    1.000
    N4411    N        0.72619    0.99826    0.06775    1.000
    Si4412   Si       0.72134    0.95797    0.08698    1.000
    Si4413   Si       0.73542    0.78880    0.16331    1.000
    N4414    N        0.72268    0.83095    0.15482    1.000
    Si4415   Si       0.73932    0.78342    0.24346    1.000
    N4416    N        0.69784    0.85965    0.22621    1.000
    Si4417   Si       0.75002    0.86748    0.15553    1.000
    N4418    N        0.70419    0.75757    0.16976    1.000
    N4419    N        0.73294    0.90067    0.17560    1.000
    N4420    N        0.72383    0.96901    0.23286    1.000
    N4421    N        0.74930    0.94864    0.11983    1.000
    Si4422   Si       0.71026    0.00154    0.20316    1.000
    Si4423   Si       0.72910    0.93996    0.15835    1.000
    N4424    N        0.70872    0.97689    0.16766    1.000
    Si4425   Si       0.72432    0.85423    0.26035    1.000
    N4426    N        0.72350    0.81211    0.27216    1.000
    N4427    N        0.71066    0.87396    0.29647    1.000
    Si4428   Si       0.71112    0.79255    0.30938    1.000
    N4429    N        0.75044    0.78308    0.32923    1.000
    N4430    N        0.72358    0.92620    0.33547    1.000
    Si4431   Si       0.71938    0.96994    0.32795    1.000
    N4432    N        0.69359    0.96236    0.29508    1.000
    Si4433   Si       0.75403    0.89764    0.34601    1.000
    N4434    N        0.69574    0.00236    0.34546    1.000
    Si4435   Si       0.74523    0.81648    0.43526    1.000
    N4436    N        0.72876    0.79388    0.46851    1.000
    N4437    N        0.73791    0.80733    0.39477    1.000
    Si4438   Si       0.70957    0.83276    0.37374    1.000
    N4439    N        0.73454    0.86971    0.37672    1.000
    N4440    N        0.73541    0.85760    0.44710    1.000
    N4441    N        0.74886    0.90993    0.49413    1.000
    Si4442   Si       0.71461    0.00300    0.43776    1.000
    N4443    N        0.74773    0.97726    0.45327    1.000
    Si4444   Si       0.73016    0.88810    0.41648    1.000
    N4445    N        0.69429    0.97217    0.40868    1.000
    Si4446   Si       0.71252    0.79071    0.57654    1.000
    N4447    N        0.73025    0.77002    0.54236    1.000
    N4448    N        0.73777    0.82279    0.58528    1.000
    N4449    N        0.72144    0.76929    0.61512    1.000
    N4450    N        0.74557    0.84062    0.51884    1.000
    Si4451   Si       0.74428    0.79722    0.51139    1.000
    Si4452   Si       0.71140    0.92543    0.57999    1.000
    N4453    N        0.72360    0.95436    0.55072    1.000
    N4454    N        0.74165    0.89762    0.56310    1.000
    Si4455   Si       0.70879    0.00480    0.61239    1.000
    Si4456   Si       0.75333    0.92748    0.53295    1.000
    Si4457   Si       0.72248    0.80676    0.69007    1.000
    N4458    N        0.72380    0.83229    0.72486    1.000
    Si4459   Si       0.70765    0.87282    0.72709    1.000
    N4460    N        0.74399    0.76866    0.68860    1.000
    N4461    N        0.74650    0.82550    0.65970    1.000
    Si4462   Si       0.75104    0.80287    0.62146    1.000
    N4463    N        0.71794    0.91979    0.62270    1.000
    N4464    N        0.73471    0.90528    0.74391    1.000
    N4465    N        0.70845    0.96858    0.69956    1.000
    Si4466   Si       0.74661    0.97468    0.67957    1.000
    N4467    N        0.70237    0.89269    0.68837    1.000
    N4468    N        0.74176    0.98978    0.63921    1.000
    Si4469   Si       0.73452    0.82361    0.76771    1.000
    N4470    N        0.72738    0.78368    0.78054    1.000
    Si4471   Si       0.71262    0.83373    0.83750    1.000
    N4472    N        0.70989    0.84366    0.79637    1.000
    N4473    N        0.70526    0.87021    0.86098    1.000
    Si4474   Si       0.72404    0.93047    0.77634    1.000
    Si4475   Si       0.72537    0.90221    0.84164    1.000
    Si4476   Si       0.72494    0.99341    0.78514    1.000
    N4477    N        0.70042    0.90890    0.80707    1.000
    N4478    N        0.70717    0.77719    0.91239    1.000
    N4479    N        0.74426    0.84055    0.98257    1.000
    Si4480   Si       0.74983    0.77403    0.91389    1.000
    Si4481   Si       0.70574    0.87816    0.90451    1.000
    N4482    N        0.74669    0.88080    0.91776    1.000
    N4483    N        0.74046    0.94955    0.93319    1.000
    Si4484   Si       0.72391    0.95362    0.97351    1.000
    Si4485   Si       0.69898    0.95043    0.91341    1.000
    N4486    N        0.72137    0.93042    0.87551    1.000
    N4487    N        0.79318    0.08970    0.09369    1.000
    N4488    N        0.76551    0.03522    0.03123    1.000
    Si4489   Si       0.77019    0.12380    0.10920    1.000
    Si4490   Si       0.77869    0.11246    0.00169    1.000
    Si4491   Si       0.80247    0.04735    0.01682    1.000
    N4492    N        0.76539    0.02080    0.11284    1.000
    N4493    N        0.80762    0.09140    0.02466    1.000
    Si4494   Si       0.79446    0.05395    0.11696    1.000
    N4495    N        0.79178    0.21066    0.04801    1.000
    N4496    N        0.77176    0.15210    0.01475    1.000
    Si4497   Si       0.77112    0.19567    0.01021    1.000
    N4498    N        0.76487    0.15451    0.07810    1.000
    Si4499   Si       0.77329    0.24791    0.06209    1.000
    Si4500   Si       0.80174    0.17941    0.07721    1.000
    N4501    N        0.80994    0.19673    0.11569    1.000
    Si4502   Si       0.78899    0.10588    0.17160    1.000
    N4503    N        0.78771    0.06450    0.15811    1.000
    Si4504   Si       0.78216    0.02962    0.18750    1.000
    N4505    N        0.81099    0.04149    0.21797    1.000
    Si4506   Si       0.75196    0.12657    0.23308    1.000
    N4507    N        0.77116    0.24057    0.15279    1.000
    N4508    N        0.79751    0.13504    0.14107    1.000
    Si4509   Si       0.80284    0.23814    0.12528    1.000
    Si4510   Si       0.77138    0.20736    0.17799    1.000
    N4511    N        0.76372    0.22250    0.21912    1.000
    Si4512   Si       0.79513    0.23153    0.24701    1.000
    N4513    N        0.77081    0.05393    0.30422    1.000
    Si4514   Si       0.78167    0.06725    0.34472    1.000
    N4515    N        0.79922    0.10592    0.34547    1.000
    Si4516   Si       0.75573    0.01458    0.29634    1.000
    Si4517   Si       0.76256    0.18932    0.34564    1.000
    Si4518   Si       0.79633    0.16200    0.28510    1.000
    N4519    N        0.79927    0.21402    0.33754    1.000
    N4520    N        0.75947    0.16613    0.30781    1.000
    N4521    N        0.81025    0.20221    0.27351    1.000
    N4522    N        0.78241    0.15109    0.24447    1.000
    N4523    N        0.80821    0.02324    0.46440    1.000
    N4524    N        0.78884    0.09732    0.41198    1.000
    Si4525   Si       0.80091    0.11121    0.45196    1.000
    Si4526   Si       0.77145    0.04602    0.47696    1.000
    N4527    N        0.78494    0.08711    0.48295    1.000
    N4528    N        0.75417    0.03737    0.43718    1.000
    Si4529   Si       0.79970    0.12977    0.38226    1.000
    Si4530   Si       0.78343    0.18030    0.48076    1.000
    N4531    N        0.77071    0.21015    0.44852    1.000
    N4532    N        0.78378    0.14937    0.45161    1.000
    Si4533   Si       0.76380    0.17788    0.42200    1.000
    N4534    N        0.77865    0.16916    0.38127    1.000
    Si4535   Si       0.78270    0.11276    0.57052    1.000
    N4536    N        0.79563    0.04769    0.53664    1.000
    N4537    N        0.79536    0.11338    0.61339    1.000
    Si4538   Si       0.76961    0.01216    0.61371    1.000
    Si4539   Si       0.75458    0.04388    0.54726    1.000
    N4540    N        0.76384    0.15362    0.57326    1.000
    Si4541   Si       0.76220    0.16419    0.61737    1.000
    Si4542   Si       0.77702    0.08622    0.64043    1.000
    N4543    N        0.77662    0.05467    0.73659    1.000
    N4544    N        0.78754    0.03968    0.64211    1.000
    N4545    N        0.78892    0.09116    0.67998    1.000
    Si4546   Si       0.78296    0.04306    0.69061    1.000
    N4547    N        0.77416    0.19417    0.69772    1.000
    Si4548   Si       0.79047    0.18424    0.73602    1.000
    N4549    N        0.80003    0.17990    0.63557    1.000
    Si4550   Si       0.80734    0.20672    0.66848    1.000
    N4551    N        0.81275    0.14750    0.73243    1.000
    Si4552   Si       0.77403    0.09618    0.82474    1.000
    Si4553   Si       0.79154    0.06235    0.77522    1.000
    N4554    N        0.80102    0.10407    0.78918    1.000
    N4555    N        0.80575    0.07780    0.85058    1.000
    N4556    N        0.75652    0.06253    0.80340    1.000
    N4557    N        0.76927    0.18461    0.77425    1.000
    N4558    N        0.78299    0.18620    0.85159    1.000
    N4559    N        0.78296    0.24149    0.80234    1.000
    Si4560   Si       0.79053    0.19875    0.81123    1.000
    Si4561   Si       0.76150    0.15205    0.87126    1.000
    Si4562   Si       0.79475    0.25285    0.76011    1.000
    Si4563   Si       0.78199    0.04444    0.86953    1.000
    N4564    N        0.79656    0.06020    0.91001    1.000
    N4565    N        0.78843    0.11259    0.95995    1.000
    Si4566   Si       0.77838    0.07193    0.94765    1.000
    N4567    N        0.80245    0.04413    0.97272    1.000
    N4568    N        0.78981    0.12999    0.89474    1.000
    Si4569   Si       0.79694    0.20945    0.95600    1.000
    N4570    N        0.75665    0.23332    0.89741    1.000
    Si4571   Si       0.80204    0.14335    0.93508    1.000
    N4572    N        0.77561    0.17849    0.93763    1.000
    Si4573   Si       0.79617    0.21963    0.88270    1.000
    N4574    N        0.76701    0.22869    0.98116    1.000
    N4575    N        0.78527    0.27375    0.02844    1.000
    Si4576   Si       0.78554    0.30798    0.10337    1.000
    N4577    N        0.79341    0.26688    0.09495    1.000
    Si4578   Si       0.79393    0.37709    0.09601    1.000
    N4579    N        0.79884    0.38071    0.05218    1.000
    N4580    N        0.75259    0.37499    0.10856    1.000
    Si4581   Si       0.76308    0.38646    0.02546    1.000
    N4582    N        0.79368    0.48658    0.04277    1.000
    N4583    N        0.76641    0.44225    0.09184    1.000
    Si4584   Si       0.76162    0.46126    0.05390    1.000
    Si4585   Si       0.80562    0.45002    0.11078    1.000
    Si4586   Si       0.79553    0.48822    0.99836    1.000
    N4587    N        0.75252    0.42794    0.02735    1.000
    N4588    N        0.77277    0.37289    0.17741    1.000
    N4589    N        0.77527    0.30937    0.14714    1.000
    Si4590   Si       0.79564    0.33368    0.17666    1.000
    N4591    N        0.79576    0.32533    0.21977    1.000
    N4592    N        0.80083    0.50245    0.20075    1.000
    Si4593   Si       0.77729    0.46823    0.18731    1.000
    Si4594   Si       0.76623    0.39920    0.21075    1.000
    N4595    N        0.79018    0.43479    0.21300    1.000
    N4596    N        0.79265    0.47089    0.14618    1.000
    N4597    N        0.78209    0.31993    0.34676    1.000
    Si4598   Si       0.78373    0.34702    0.31232    1.000
    N4599    N        0.76911    0.38115    0.25131    1.000
    N4600    N        0.78288    0.25677    0.28000    1.000
    N4601    N        0.75225    0.32557    0.28435    1.000
    Si4602   Si       0.76144    0.33976    0.24365    1.000
    N4603    N        0.77686    0.38743    0.32134    1.000
    Si4604   Si       0.77252    0.40986    0.28409    1.000
    Si4605   Si       0.79224    0.42062    0.34962    1.000
    N4606    N        0.78564    0.45873    0.33107    1.000
    N4607    N        0.80586    0.48549    0.26476    1.000
    N4608    N        0.76301    0.27879    0.43947    1.000
    N4609    N        0.77585    0.34195    0.41862    1.000
    Si4610   Si       0.79467    0.30663    0.43351    1.000
    Si4611   Si       0.79658    0.37927    0.41060    1.000
    N4612    N        0.75242    0.33157    0.48855    1.000
    N4613    N        0.77803    0.41034    0.38954    1.000
    N4614    N        0.76512    0.45320    0.47648    1.000
    Si4615   Si       0.78536    0.30931    0.50341    1.000
    N4616    N        0.78204    0.26435    0.50520    1.000
    N4617    N        0.79892    0.32601    0.54074    1.000
    N4618    N        0.79588    0.31458    0.61801    1.000
    Si4619   Si       0.79948    0.26984    0.62431    1.000
    N4620    N        0.75529    0.25912    0.62102    1.000
    N4621    N        0.78376    0.49735    0.59828    1.000
    N4622    N        0.76679    0.45371    0.54868    1.000
    Si4623   Si       0.78593    0.46830    0.51165    1.000
    Si4624   Si       0.76998    0.41089    0.54777    1.000
    Si4625   Si       0.81144    0.46942    0.61296    1.000
    N4626    N        0.81103    0.40015    0.55232    1.000
    N4627    N        0.76611    0.30194    0.67815    1.000
    N4628    N        0.77930    0.33789    0.73407    1.000
    Si4629   Si       0.78927    0.37642    0.71575    1.000
    N4630    N        0.79560    0.36931    0.67259    1.000
    Si4631   Si       0.79590    0.32810    0.65892    1.000
    N4632    N        0.75523    0.26587    0.74343    1.000
    N4633    N        0.79047    0.43422    0.62992    1.000
    N4634    N        0.75657    0.40499    0.72701    1.000
    Si4635   Si       0.79819    0.32697    0.77235    1.000
    N4636    N        0.76847    0.31640    0.80374    1.000
    Si4637   Si       0.77050    0.33135    0.84613    1.000
    N4638    N        0.77421    0.28746    0.85585    1.000
    Si4639   Si       0.75894    0.27621    0.81543    1.000
    N4640    N        0.80827    0.35059    0.85796    1.000
    N4641    N        0.75394    0.41529    0.80520    1.000
    N4642    N        0.80456    0.42108    0.84913    1.000
    Si4643   Si       0.79367    0.43361    0.80856    1.000
    N4644    N        0.77975    0.47513    0.79837    1.000
    Si4645   Si       0.81245    0.50421    0.79298    1.000
    Si4646   Si       0.77767    0.31297    0.94709    1.000
    N4647    N        0.80070    0.34722    0.94525    1.000
    N4648    N        0.80275    0.28160    0.96693    1.000
    Si4649   Si       0.76484    0.27157    0.99058    1.000
    Si4650   Si       0.77530    0.38267    0.94036    1.000
    N4651    N        0.79510    0.40614    0.90895    1.000
    Si4652   Si       0.76132    0.43659    0.98452    1.000
    N4653    N        0.77004    0.39141    0.98167    1.000
    N4654    N        0.80867    0.47320    0.89265    1.000
    Si4655   Si       0.78554    0.43835    0.88483    1.000
    N4656    N        0.80337    0.45095    0.98069    1.000
    N4657    N        0.75242    0.48168    0.98523    1.000
    N4658    N        0.78847    0.58866    0.01699    1.000
    Si4659   Si       0.76581    0.60640    0.10463    1.000
    N4660    N        0.80583    0.59769    0.09663    1.000
    N4661    N        0.77390    0.72903    0.08236    1.000
    N4662    N        0.76891    0.72817    0.01061    1.000
    N4663    N        0.76866    0.65787    0.02875    1.000
    N4664    N        0.77369    0.64974    0.11000    1.000
    Si4665   Si       0.80673    0.71835    0.10797    1.000
    Si4666   Si       0.81049    0.65443    0.02116    1.000
    Si4667   Si       0.77770    0.75137    0.04461    1.000
    N4668    N        0.78709    0.57600    0.20477    1.000
    Si4669   Si       0.77238    0.56004    0.16660    1.000
    Si4670   Si       0.79285    0.51666    0.23945    1.000
    Si4671   Si       0.75928    0.59867    0.22922    1.000
    N4672    N        0.80563    0.54066    0.14347    1.000
    N4673    N        0.75348    0.59076    0.14149    1.000
    Si4674   Si       0.78477    0.72680    0.24364    1.000
    Si4675   Si       0.75888    0.68025    0.13696    1.000
    N4676    N        0.79471    0.70545    0.14668    1.000
    N4677    N        0.77829    0.63718    0.22264    1.000
    N4678    N        0.75610    0.71333    0.21225    1.000
    N4679    N        0.81342    0.74552    0.21077    1.000
    N4680    N        0.78169    0.57943    0.32883    1.000
    Si4681   Si       0.77795    0.53716    0.33567    1.000
    Si4682   Si       0.80617    0.61313    0.34360    1.000
    N4683    N        0.75285    0.51638    0.30319    1.000
    N4684    N        0.74718    0.57946    0.26529    1.000
    N4685    N        0.79537    0.69242    0.34326    1.000
    N4686    N        0.78027    0.69426    0.27484    1.000
    Si4687   Si       0.80715    0.73240    0.35465    1.000
    Si4688   Si       0.81201    0.68208    0.30350    1.000
    N4689    N        0.75372    0.63663    0.29931    1.000
    N4690    N        0.76114    0.52332    0.37353    1.000
    N4691    N        0.78028    0.62994    0.37479    1.000
    N4692    N        0.79589    0.57652    0.41596    1.000
    Si4693   Si       0.78585    0.53527    0.40764    1.000
    Si4694   Si       0.79698    0.53226    0.47933    1.000
    N4695    N        0.79625    0.57544    0.48539    1.000
    Si4696   Si       0.76193    0.60426    0.40609    1.000
    N4697    N        0.77727    0.51738    0.44361    1.000
    Si4698   Si       0.81157    0.59769    0.45264    1.000
    N4699    N        0.76733    0.62766    0.44216    1.000
    Si4700   Si       0.79564    0.66076    0.44414    1.000
    N4701    N        0.79812    0.68578    0.48144    1.000
    Si4702   Si       0.77867    0.72791    0.42035    1.000
    N4703    N        0.80130    0.68876    0.41087    1.000
    N4704    N        0.78085    0.75026    0.38344    1.000
    Si4705   Si       0.77533    0.67403    0.37686    1.000
    N4706    N        0.80621    0.74619    0.44994    1.000
    Si4707   Si       0.76996    0.59088    0.51663    1.000
    N4708    N        0.79092    0.59564    0.55130    1.000
    Si4709   Si       0.79369    0.58774    0.59420    1.000
    N4710    N        0.77755    0.50910    0.50997    1.000
    N4711    N        0.75905    0.63296    0.50680    1.000
    N4712    N        0.80939    0.55620    0.62082    1.000
    Si4713   Si       0.77649    0.67106    0.51642    1.000
    N4714    N        0.78961    0.73002    0.55938    1.000
    N4715    N        0.80635    0.66210    0.54607    1.000
    Si4716   Si       0.77198    0.53339    0.62020    1.000
    N4717    N        0.77259    0.61517    0.62186    1.000
    N4718    N        0.78027    0.51877    0.71986    1.000
    Si4719   Si       0.78579    0.62316    0.66286    1.000
    Si4720   Si       0.77049    0.61243    0.72627    1.000
    N4721    N        0.80973    0.61748    0.70057    1.000
    Si4722   Si       0.80296    0.69482    0.65095    1.000
    N4723    N        0.76477    0.72163    0.63543    1.000
    N4724    N        0.77246    0.66469    0.66698    1.000
    Si4725   Si       0.77862    0.75502    0.66058    1.000
    N4726    N        0.79423    0.54261    0.78383    1.000
    N4727    N        0.77740    0.58460    0.85626    1.000
    N4728    N        0.79547    0.61347    0.76786    1.000
    Si4729   Si       0.76367    0.53785    0.75499    1.000
    N4730    N        0.76038    0.51623    0.85933    1.000
    N4731    N        0.78029    0.67839    0.79204    1.000
    Si4732   Si       0.78502    0.68205    0.83407    1.000
    N4733    N        0.79987    0.71421    0.85973    1.000
    Si4734   Si       0.75976    0.73345    0.86445    1.000
    N4735    N        0.75679    0.66356    0.86075    1.000
    N4736    N        0.79047    0.75267    0.78855    1.000
    Si4737   Si       0.80874    0.64401    0.79189    1.000
    Si4738   Si       0.76394    0.62241    0.87574    1.000
    N4739    N        0.79135    0.53324    0.91907    1.000
    Si4740   Si       0.79829    0.51501    0.88103    1.000
    N4741    N        0.77160    0.62599    0.91907    1.000
    N4742    N        0.75202    0.56523    0.96031    1.000
    Si4743   Si       0.79294    0.65739    0.94681    1.000
    N4744    N        0.81201    0.63750    0.98021    1.000
    N4745    N        0.76674    0.68827    0.96480    1.000
    N4746    N        0.77518    0.75673    0.94291    1.000
    Si4747   Si       0.78974    0.72721    0.97301    1.000
    N4748    N        0.77391    0.85270    0.04352    1.000
    Si4749   Si       0.76948    0.82028    0.01280    1.000
    N4750    N        0.80101    0.82469    0.10179    1.000
    Si4751   Si       0.76559    0.84281    0.08457    1.000
    N4752    N        0.75552    0.78912    0.04033    1.000
    N4753    N        0.75667    0.87659    0.11451    1.000
    Si4754   Si       0.80889    0.88002    0.04402    1.000
    N4755    N        0.80073    0.91078    0.07274    1.000
    Si4756   Si       0.79590    0.94074    0.00705    1.000
    N4757    N        0.78954    0.96766    0.04221    1.000
    Si4758   Si       0.76221    0.91352    0.09280    1.000
    Si4759   Si       0.75602    0.99354    0.03492    1.000
    N4760    N        0.75648    0.92889    0.99763    1.000
    Si4761   Si       0.80000    0.78880    0.12632    1.000
    N4762    N        0.78277    0.86349    0.18380    1.000
    Si4763   Si       0.79937    0.78342    0.20462    1.000
    N4764    N        0.75715    0.77441    0.12872    1.000
    N4765    N        0.81131    0.80144    0.16556    1.000
    N4766    N        0.75476    0.78806    0.20294    1.000
    Si4767   Si       0.80964    0.95796    0.19488    1.000
    N4768    N        0.77847    0.93512    0.21369    1.000
    Si4769   Si       0.76420    0.89580    0.20893    1.000
    Si4770   Si       0.77866    0.98277    0.12924    1.000
    N4771    N        0.78757    0.98876    0.17119    1.000
    Si4772   Si       0.78313    0.77942    0.30001    1.000
    N4773    N        0.80051    0.81663    0.36014    1.000
    N4774    N        0.78199    0.87737    0.31630    1.000
    Si4775   Si       0.80641    0.84327    0.32520    1.000
    N4776    N        0.80410    0.81818    0.29214    1.000
    N4777    N        0.77027    0.76185    0.26304    1.000
    Si4778   Si       0.76951    0.78894    0.36927    1.000
    N4779    N        0.75722    0.87726    0.24727    1.000
    N4780    N        0.76056    0.98750    0.33077    1.000
    N4781    N        0.77660    0.99740    0.26325    1.000
    Si4782   Si       0.78421    0.89418    0.27546    1.000
    Si4783   Si       0.78967    0.95061    0.31920    1.000
    N4784    N        0.77449    0.93650    0.28193    1.000
    N4785    N        0.78454    0.92757    0.35786    1.000
    Si4786   Si       0.79444    0.99741    0.35664    1.000
    Si4787   Si       0.76350    0.96081    0.24742    1.000
    N4788    N        0.78865    0.81482    0.44262    1.000
    N4789    N        0.79841    0.85997    0.48823    1.000
    Si4790   Si       0.75487    0.86802    0.48556    1.000
    Si4791   Si       0.80891    0.78451    0.46942    1.000
    Si4792   Si       0.76177    0.93661    0.46265    1.000
    N4793    N        0.80398    0.94287    0.47239    1.000
    N4794    N        0.78927    0.98596    0.39766    1.000
    Si4795   Si       0.78177    0.00134    0.43600    1.000
    N4796    N        0.76005    0.91936    0.42279    1.000
    Si4797   Si       0.78937    0.94012    0.39744    1.000
    N4798    N        0.79565    0.85708    0.56906    1.000
    N4799    N        0.78473    0.78315    0.50617    1.000
    Si4800   Si       0.75419    0.85470    0.55926    1.000
    Si4801   Si       0.81037    0.76002    0.53319    1.000
    Si4802   Si       0.79798    0.89141    0.59788    1.000
    N4803    N        0.79243    0.94477    0.54255    1.000
    N4804    N        0.78737    0.93430    0.60833    1.000
    N4805    N        0.79950    0.00073    0.58412    1.000
    Si4806   Si       0.80853    0.95974    0.57957    1.000
    Si4807   Si       0.77909    0.85393    0.66297    1.000
    N4808    N        0.79065    0.78307    0.62895    1.000
    N4809    N        0.78412    0.87218    0.70533    1.000
    N4810    N        0.77241    0.88089    0.63261    1.000
    Si4811   Si       0.75875    0.92157    0.63777    1.000
    N4812    N        0.76161    0.93432    0.67916    1.000
    Si4813   Si       0.76761    0.91190    0.71482    1.000
    N4814    N        0.77679    0.99884    0.69769    1.000
    N4815    N        0.79850    0.92985    0.73905    1.000
    N4816    N        0.77416    0.83420    0.77488    1.000
    Si4817   Si       0.77323    0.85749    0.81079    1.000
    N4818    N        0.75590    0.83266    0.84250    1.000
    Si4819   Si       0.79487    0.95796    0.77271    1.000
    N4820    N        0.76546    0.89857    0.82331    1.000
    Si4821   Si       0.80153    0.91998    0.83979    1.000
    N4822    N        0.75296    0.96218    0.77995    1.000
    N4823    N        0.79060    0.00401    0.86619    1.000
    N4824    N        0.76820    0.77451    0.87352    1.000
    N4825    N        0.80695    0.86363    0.94545    1.000
    Si4826   Si       0.79883    0.79390    0.94934    1.000
    Si4827   Si       0.77511    0.81688    0.87798    1.000
    N4828    N        0.76716    0.81494    0.92379    1.000
    Si4829   Si       0.76618    0.85271    0.94432    1.000
    N4830    N        0.80153    0.79940    0.99195    1.000
    N4831    N        0.81031    0.83957    0.87774    1.000
    N4832    N        0.78935    0.93683    0.87817    1.000
    Si4833   Si       0.75698    0.92137    0.90387    1.000
    N4834    N        0.83152    0.02420    0.03887    1.000
    Si4835   Si       0.85429    0.03839    0.07319    1.000
    N4836    N        0.86060    0.08151    0.06723    1.000
    Si4837   Si       0.82360    0.10400    0.06405    1.000
    N4838    N        0.83538    0.04028    0.11409    1.000
    N4839    N        0.83105    0.14676    0.06869    1.000
    Si4840   Si       0.83521    0.21973    0.02745    1.000
    N4841    N        0.86310    0.20494    0.05783    1.000
    Si4842   Si       0.86752    0.16219    0.04974    1.000
    N4843    N        0.85035    0.25590    0.01003    1.000
    N4844    N        0.85817    0.07211    0.17481    1.000
    Si4845   Si       0.83589    0.07652    0.21188    1.000
    Si4846   Si       0.86339    0.03753    0.14621    1.000
    N4847    N        0.81681    0.11532    0.20204    1.000
    N4848    N        0.81164    0.18590    0.18536    1.000
    Si4849   Si       0.82462    0.16916    0.14586    1.000
    N4850    N        0.85311    0.15860    0.23806    1.000
    Si4851   Si       0.83842    0.22269    0.19038    1.000
    N4852    N        0.83562    0.24660    0.15376    1.000
    N4853    N        0.83158    0.24316    0.22610    1.000
    Si4854   Si       0.81530    0.15559    0.21707    1.000
    N4855    N        0.86630    0.16621    0.13895    1.000
    Si4856   Si       0.83784    0.11796    0.33331    1.000
    N4857    N        0.84136    0.03092    0.28676    1.000
    Si4858   Si       0.84689    0.04166    0.32809    1.000
    Si4859   Si       0.81758    0.01428    0.25181    1.000
    Si4860   Si       0.86023    0.12717    0.26786    1.000
    N4861    N        0.86355    0.08120    0.32589    1.000
    N4862    N        0.85783    0.08876    0.24835    1.000
    N4863    N        0.81089    0.03726    0.35178    1.000
    Si4864   Si       0.81131    0.23510    0.30409    1.000
    N4865    N        0.82917    0.13715    0.29536    1.000
    Si4866   Si       0.83236    0.19251    0.35826    1.000
    N4867    N        0.86319    0.19171    0.32782    1.000
    Si4868   Si       0.86234    0.25696    0.25391    1.000
    Si4869   Si       0.84636    0.02037    0.48690    1.000
    N4870    N        0.84090    0.11133    0.46478    1.000
    N4871    N        0.84016    0.14674    0.37186    1.000
    N4872    N        0.84632    0.25154    0.45722    1.000
    Si4873   Si       0.81717    0.24019    0.49046    1.000
    N4874    N        0.84655    0.22038    0.38731    1.000
    Si4875   Si       0.84699    0.25746    0.41359    1.000
    N4876    N        0.85243    0.05738    0.51027    1.000
    Si4877   Si       0.82241    0.01776    0.55060    1.000
    N4878    N        0.86028    0.02524    0.57072    1.000
    Si4879   Si       0.85265    0.12833    0.56021    1.000
    N4880    N        0.81681    0.11110    0.54495    1.000
    Si4881   Si       0.81584    0.08103    0.51253    1.000
    N4882    N        0.84912    0.14946    0.59671    1.000
    Si4883   Si       0.85815    0.19694    0.52287    1.000
    Si4884   Si       0.85293    0.25003    0.56306    1.000
    N4885    N        0.84949    0.24823    0.51968    1.000
    N4886    N        0.81869    0.19654    0.49984    1.000
    N4887    N        0.86491    0.20861    0.56868    1.000
    N4888    N        0.87216    0.15518    0.53105    1.000
    N4889    N        0.84700    0.06790    0.63111    1.000
    Si4890   Si       0.85721    0.05859    0.71395    1.000
    Si4891   Si       0.83216    0.03210    0.64960    1.000
    N4892    N        0.84037    0.09407    0.73171    1.000
    N4893    N        0.82929    0.03380    0.69232    1.000
    Si4894   Si       0.81762    0.11692    0.70019    1.000
    N4895    N        0.84314    0.13136    0.66535    1.000
    N4896    N        0.81555    0.21908    0.74575    1.000
    N4897    N        0.81706    0.24783    0.65810    1.000
    Si4898   Si       0.82264    0.14454    0.62813    1.000
    N4899    N        0.84354    0.19486    0.69072    1.000
    Si4900   Si       0.85306    0.21794    0.72467    1.000
    Si4901   Si       0.83159    0.12219    0.76486    1.000
    Si4902   Si       0.83944    0.06345    0.82859    1.000
    N4903    N        0.82377    0.04165    0.79526    1.000
    Si4904   Si       0.84909    0.01440    0.77525    1.000
    N4905    N        0.85958    0.03569    0.85745    1.000
    N4906    N        0.83591    0.19485    0.80838    1.000
    N4907    N        0.82681    0.24036    0.85586    1.000
    Si4908   Si       0.85838    0.23208    0.82621    1.000
    Si4909   Si       0.87062    0.17953    0.78594    1.000
    N4910    N        0.86818    0.13744    0.78209    1.000
    N4911    N        0.85881    0.04305    0.92730    1.000
    Si4912   Si       0.81975    0.02795    0.93530    1.000
    N4913    N        0.85515    0.10380    0.89330    1.000
    Si4914   Si       0.81255    0.09383    0.89050    1.000
    Si4915   Si       0.87042    0.06297    0.88772    1.000
    N4916    N        0.84538    0.15226    0.94115    1.000
    Si4917   Si       0.85653    0.17722    0.97605    1.000
    N4918    N        0.82073    0.19759    0.99207    1.000
    N4919    N        0.81783    0.22481    0.92134    1.000
    Si4920   Si       0.83308    0.35147    0.05205    1.000
    N4921    N        0.82998    0.33013    0.01377    1.000
    Si4922   Si       0.82174    0.28744    0.00690    1.000
    N4923    N        0.81754    0.33882    0.09455    1.000
    N4924    N        0.83457    0.48019    0.09724    1.000
    Si4925   Si       0.82841    0.50467    0.06156    1.000
    N4926    N        0.86116    0.50434    0.03352    1.000
    N4927    N        0.81999    0.40783    0.11277    1.000
    Si4928   Si       0.84971    0.33227    0.12527    1.000
    N4929    N        0.85792    0.36647    0.23453    1.000
    N4930    N        0.83626    0.34095    0.16509    1.000
    Si4931   Si       0.86546    0.36342    0.18825    1.000
    N4932    N        0.85771    0.43776    0.23031    1.000
    Si4933   Si       0.86924    0.44605    0.18833    1.000
    Si4934   Si       0.86958    0.47302    0.12382    1.000
    N4935    N        0.86192    0.40344    0.17393    1.000
    N4936    N        0.85334    0.47801    0.16234    1.000
    Si4937   Si       0.85994    0.40123    0.13078    1.000
    Si4938   Si       0.81775    0.50166    0.15974    1.000
    N4939    N        0.84912    0.30872    0.34480    1.000
    Si4940   Si       0.84888    0.30507    0.29998    1.000
    N4941    N        0.81766    0.33658    0.28675    1.000
    N4942    N        0.84540    0.26199    0.29606    1.000
    N4943    N        0.86029    0.30147    0.24852    1.000
    Si4944   Si       0.83039    0.33335    0.24462    1.000
    Si4945   Si       0.81598    0.48045    0.30683    1.000
    N4946    N        0.83511    0.41731    0.34449    1.000
    Si4947   Si       0.85062    0.42811    0.30586    1.000
    N4948    N        0.85875    0.46960    0.30463    1.000
    N4949    N        0.81450    0.42423    0.28213    1.000
    Si4950   Si       0.81692    0.44625    0.24582    1.000
    Si4951   Si       0.81760    0.32123    0.37311    1.000
    N4952    N        0.82312    0.29234    0.40480    1.000
    Si4953   Si       0.83737    0.35476    0.46302    1.000
    N4954    N        0.82642    0.36200    0.38247    1.000
    N4955    N        0.81390    0.31834    0.46982    1.000
    N4956    N        0.82402    0.39108    0.44244    1.000
    N4957    N        0.84464    0.46178    0.44567    1.000
    Si4958   Si       0.85761    0.38952    0.37199    1.000
    N4959    N        0.86419    0.47876    0.37992    1.000
    Si4960   Si       0.85414    0.47679    0.48554    1.000
    Si4961   Si       0.85820    0.41987    0.44236    1.000
    Si4962   Si       0.84970    0.49429    0.41802    1.000
    Si4963   Si       0.82564    0.36159    0.54126    1.000
    N4964    N        0.84413    0.36559    0.50394    1.000
    N4965    N        0.85329    0.34396    0.57053    1.000
    N4966    N        0.82169    0.26803    0.58413    1.000
    Si4967   Si       0.81489    0.31283    0.57761    1.000
    Si4968   Si       0.86555    0.38472    0.59175    1.000
    Si4969   Si       0.83763    0.43506    0.55076    1.000
    N4970    N        0.82953    0.45848    0.51539    1.000
    N4971    N        0.84254    0.44883    0.59157    1.000
    N4972    N        0.83847    0.31168    0.66676    1.000
    Si4973   Si       0.85164    0.26985    0.67445    1.000
    Si4974   Si       0.85918    0.34450    0.64936    1.000
    N4975    N        0.84217    0.38050    0.62689    1.000
    N4976    N        0.86170    0.25934    0.71566    1.000
    N4977    N        0.82814    0.38611    0.73056    1.000
    N4978    N        0.84262    0.49108    0.63717    1.000
    Si4979   Si       0.85867    0.40067    0.70474    1.000
    Si4980   Si       0.81350    0.40337    0.65165    1.000
    Si4981   Si       0.85692    0.46609    0.67558    1.000
    N4982    N        0.83528    0.42921    0.67945    1.000
    N4983    N        0.86392    0.49436    0.70535    1.000
    Si4984   Si       0.83956    0.34094    0.82916    1.000
    N4985    N        0.84904    0.30026    0.83826    1.000
    N4986    N        0.82537    0.35503    0.79152    1.000
    N4987    N        0.81722    0.28907    0.76168    1.000
    Si4988   Si       0.81725    0.28206    0.86414    1.000
    Si4989   Si       0.86001    0.28286    0.75217    1.000
    Si4990   Si       0.84409    0.38802    0.77101    1.000
    N4991    N        0.83142    0.42463    0.78926    1.000
    N4992    N        0.84599    0.48800    0.81953    1.000
    Si4993   Si       0.86267    0.45067    0.80335    1.000
    N4994    N        0.83337    0.50076    0.75699    1.000
    Si4995   Si       0.83013    0.26407    0.93667    1.000
    N4996    N        0.82946    0.29295    0.90466    1.000
    Si4997   Si       0.83194    0.35165    0.97319    1.000
    N4998    N        0.86623    0.33882    0.95264    1.000
    Si4999   Si       0.86845    0.30646    0.92429    1.000
    N5000    N        0.86998    0.27113    0.94995    1.000
    N5001    N        0.86019    0.38902    0.88770    1.000
    Si5002   Si       0.84949    0.47406    0.90898    1.000
    Si5003   Si       0.81879    0.38765    0.87724    1.000
    Si5004   Si       0.84273    0.43371    0.97627    1.000
    N5005    N        0.85963    0.44148    0.93670    1.000
    N5006    N        0.84492    0.39139    0.98573    1.000
    N5007    N        0.84758    0.57864    0.01592    1.000
    Si5008   Si       0.82605    0.56067    0.11126    1.000
    Si5009   Si       0.85378    0.53677    0.00653    1.000
    N5010    N        0.82482    0.54683    0.07109    1.000
    Si5011   Si       0.81812    0.58606    0.05108    1.000
    N5012    N        0.83422    0.63152    0.05043    1.000
    Si5013   Si       0.87157    0.61516    0.02971    1.000
    N5014    N        0.85801    0.63491    0.11760    1.000
    Si5015   Si       0.82193    0.64298    0.09438    1.000
    N5016    N        0.82817    0.68609    0.08851    1.000
    Si5017   Si       0.85949    0.69322    0.05706    1.000
    N5018    N        0.83449    0.68972    0.02221    1.000
    N5019    N        0.82614    0.75642    0.11261    1.000
    N5020    N        0.86609    0.56556    0.12418    1.000
    Si5021   Si       0.83144    0.58086    0.22438    1.000
    N5022    N        0.84435    0.61098    0.19264    1.000
    Si5023   Si       0.82010    0.63834    0.21485    1.000
    N5024    N        0.86196    0.71624    0.17082    1.000
    N5025    N        0.83163    0.67963    0.20939    1.000
    Si5026   Si       0.82056    0.71138    0.18148    1.000
    Si5027   Si       0.85676    0.55231    0.27356    1.000
    Si5028   Si       0.85442    0.62365    0.28596    1.000
    N5029    N        0.83891    0.59302    0.36484    1.000
    N5030    N        0.81834    0.51791    0.32960    1.000
    N5031    N        0.86325    0.58450    0.30093    1.000
    Si5032   Si       0.84893    0.51317    0.35886    1.000
    N5033    N        0.82049    0.54726    0.25330    1.000
    N5034    N        0.83330    0.61841    0.25001    1.000
    N5035    N        0.82361    0.64024    0.31208    1.000
    Si5036   Si       0.85232    0.74763    0.30143    1.000
    N5037    N        0.84979    0.70309    0.29601    1.000
    N5038    N        0.81336    0.75688    0.32084    1.000
    Si5039   Si       0.83685    0.56891    0.40001    1.000
    N5040    N        0.83783    0.51856    0.47848    1.000
    N5041    N        0.82859    0.52573    0.39807    1.000
    N5042    N        0.85204    0.58212    0.43944    1.000
    Si5043   Si       0.86723    0.54827    0.46379    1.000
    Si5044   Si       0.87159    0.62133    0.43156    1.000
    Si5045   Si       0.84754    0.69418    0.40535    1.000
    N5046    N        0.84666    0.72492    0.37358    1.000
    N5047    N        0.86287    0.71320    0.44033    1.000
    N5048    N        0.83028    0.63705    0.45752    1.000
    Si5049   Si       0.86271    0.64496    0.48888    1.000
    Si5050   Si       0.83195    0.71635    0.47335    1.000
    N5051    N        0.86515    0.65375    0.39992    1.000
    N5052    N        0.83569    0.60726    0.58797    1.000
    Si5053   Si       0.82644    0.62468    0.55020    1.000
    N5054    N        0.86168    0.62007    0.52374    1.000
    N5055    N        0.85470    0.71637    0.56302    1.000
    N5056    N        0.84049    0.74633    0.50515    1.000
    N5057    N        0.81957    0.68576    0.61021    1.000
    Si5058   Si       0.81671    0.69701    0.56952    1.000
    N5059    N        0.85958    0.68542    0.50056    1.000
    Si5060   Si       0.85748    0.66462    0.62657    1.000
    Si5061   Si       0.86933    0.71947    0.52307    1.000
    Si5062   Si       0.82547    0.51723    0.71690    1.000
    N5063    N        0.83123    0.54809    0.68561    1.000
    Si5064   Si       0.84108    0.58581    0.70436    1.000
    Si5065   Si       0.84012    0.53837    0.64528    1.000
    N5066    N        0.84769    0.57183    0.74475    1.000
    N5067    N        0.87207    0.61747    0.69655    1.000
    N5068    N        0.84458    0.68715    0.72605    1.000
    Si5069   Si       0.84447    0.72546    0.70211    1.000
    N5070    N        0.83994    0.67096    0.66561    1.000
    Si5071   Si       0.84112    0.64936    0.70373    1.000
    N5072    N        0.84175    0.75583    0.73615    1.000
    N5073    N        0.80945    0.73004    0.67830    1.000
    N5074    N        0.83976    0.58930    0.81386    1.000
    N5075    N        0.82900    0.53890    0.86187    1.000
    Si5076   Si       0.82131    0.58091    0.85378    1.000
    Si5077   Si       0.81955    0.57748    0.77647    1.000
    Si5078   Si       0.86119    0.51468    0.84817    1.000
    N5079    N        0.85224    0.64763    0.78282    1.000
    Si5080   Si       0.84889    0.64539    0.86059    1.000
    N5081    N        0.85799    0.72251    0.78970    1.000
    N5082    N        0.81543    0.64928    0.83592    1.000
    Si5083   Si       0.86326    0.68579    0.76585    1.000
    Si5084   Si       0.83207    0.75411    0.77907    1.000
    N5085    N        0.83784    0.60908    0.88286    1.000
    N5086    N        0.83404    0.57988    0.94770    1.000
    Si5087   Si       0.82226    0.53778    0.94708    1.000
    Si5088   Si       0.86002    0.59618    0.91783    1.000
    N5089    N        0.81665    0.52578    0.98805    1.000
    Si5090   Si       0.81999    0.59544    0.98518    1.000
    N5091    N        0.85222    0.51108    0.93325    1.000
    Si5092   Si       0.85572    0.71665    0.94990    1.000
    N5093    N        0.84961    0.74181    0.90953    1.000
    N5094    N        0.82347    0.68994    0.93123    1.000
    N5095    N        0.83171    0.74040    0.97688    1.000
    Si5096   Si       0.82823    0.70962    0.89078    1.000
    N5097    N        0.86272    0.68527    0.87267    1.000
    N5098    N        0.84120    0.85059    0.04769    1.000
    Si5099   Si       0.84130    0.83612    0.08862    1.000
    Si5100   Si       0.83476    0.77239    0.00657    1.000
    Si5101   Si       0.85001    0.76491    0.07819    1.000
    N5102    N        0.81968    0.76478    0.04629    1.000
    N5103    N        0.86486    0.86619    0.10958    1.000
    N5104    N        0.86734    0.80143    0.08730    1.000
    N5105    N        0.87060    0.79641    0.00714    1.000
    Si5106   Si       0.87010    0.83843    0.02125    1.000
    Si5107   Si       0.84625    0.98805    0.02045    1.000
    N5108    N        0.85362    0.95979    0.05221    1.000
    N5109    N        0.81479    0.96657    0.11211    1.000
    N5110    N        0.81539    0.90145    0.00730    1.000
    Si5111   Si       0.81664    0.95213    0.07243    1.000
    Si5112   Si       0.81801    0.83918    0.18694    1.000
    N5113    N        0.85537    0.85823    0.17756    1.000
    N5114    N        0.81582    0.81708    0.22558    1.000
    N5115    N        0.86417    0.99848    0.16369    1.000
    N5116    N        0.84135    0.93537    0.17293    1.000
    Si5117   Si       0.86599    0.89946    0.18404    1.000
    N5118    N        0.83208    0.97903    0.22559    1.000
    Si5119   Si       0.84974    0.96504    0.13841    1.000
    N5120    N        0.84855    0.84733    0.34001    1.000
    Si5121   Si       0.83697    0.81126    0.26365    1.000
    N5122    N        0.85374    0.77059    0.26444    1.000
    Si5123   Si       0.86438    0.88124    0.25848    1.000
    N5124    N        0.82570    0.89241    0.26604    1.000
    N5125    N        0.82455    0.97283    0.33203    1.000
    Si5126   Si       0.86666    0.97409    0.32881    1.000
    Si5127   Si       0.83993    0.82482    0.37619    1.000
    N5128    N        0.84490    0.80807    0.46704    1.000
    Si5129   Si       0.81913    0.84336    0.45177    1.000
    N5130    N        0.83712    0.84894    0.41246    1.000
    N5131    N        0.86316    0.79011    0.38254    1.000
    N5132    N        0.84684    0.88345    0.46138    1.000
    N5133    N        0.83036    0.93062    0.41094    1.000
    Si5134   Si       0.83887    0.92535    0.45297    1.000
    Si5135   Si       0.86827    0.93760    0.39084    1.000
    N5136    N        0.85547    0.85167    0.53357    1.000
    N5137    N        0.84806    0.82527    0.60542    1.000
    Si5138   Si       0.83016    0.83192    0.56475    1.000
    Si5139   Si       0.82637    0.78602    0.60661    1.000
    N5140    N        0.82315    0.78864    0.56267    1.000
    Si5141   Si       0.83352    0.87735    0.50659    1.000
    N5142    N        0.85658    0.75770    0.62008    1.000
    N5143    N        0.84682    0.91662    0.52002    1.000
    N5144    N        0.83532    0.99246    0.51811    1.000
    N5145    N        0.85093    0.95646    0.58861    1.000
    Si5146   Si       0.82163    0.95017    0.51174    1.000
    N5147    N        0.84085    0.88960    0.60645    1.000
    Si5148   Si       0.87244    0.99412    0.59734    1.000
    N5149    N        0.82279    0.84982    0.66118    1.000
    N5150    N        0.85357    0.79290    0.68233    1.000
    Si5151   Si       0.85435    0.85745    0.63278    1.000
    Si5152   Si       0.85700    0.79603    0.72522    1.000
    Si5153   Si       0.82561    0.85986    0.70431    1.000
    N5154    N        0.83506    0.83275    0.73654    1.000
    Si5155   Si       0.84083    0.93101    0.72677    1.000
    N5156    N        0.85668    0.99994    0.63855    1.000
    N5157    N        0.85231    0.89285    0.70586    1.000
    N5158    N        0.84725    0.96567    0.69987    1.000
    Si5159   Si       0.81918    0.99623    0.71288    1.000
    N5160    N        0.84379    0.79503    0.79285    1.000
    Si5161   Si       0.83638    0.85663    0.84817    1.000
    Si5162   Si       0.81825    0.82716    0.77784    1.000
    N5163    N        0.81696    0.85663    0.81009    1.000
    N5164    N        0.87027    0.83196    0.84779    1.000
    N5165    N        0.83838    0.89865    0.85577    1.000
    Si5166   Si       0.86437    0.94569    0.79851    1.000
    N5167    N        0.81822    0.94084    0.80614    1.000
    N5168    N        0.81882    0.99017    0.75484    1.000
    N5169    N        0.86794    0.98879    0.80492    1.000
    N5170    N        0.85039    0.96459    0.86617    1.000
    Si5171   Si       0.83314    0.84386    0.91614    1.000
    N5172    N        0.83845    0.80229    0.93412    1.000
    N5173    N        0.86456    0.85756    0.98156    1.000
    Si5174   Si       0.87156    0.77731    0.92144    1.000
    N5175    N        0.82146    0.98536    0.92472    1.000
    N5176    N        0.85412    0.91786    0.94610    1.000
    N5177    N        0.82704    0.96649    0.98792    1.000
    Si5178   Si       0.84802    0.96118    0.94974    1.000
    Si5179   Si       0.83267    0.88761    0.96979    1.000
    Si5180   Si       0.81178    0.97304    0.88400    1.000
    N5181    N        0.91062    0.09092    0.01649    1.000
    Si5182   Si       0.89857    0.09693    0.05870    1.000
    N5183    N        0.88684    0.01304    0.08286    1.000
    Si5184   Si       0.92644    0.03171    0.08039    1.000
    Si5185   Si       0.89782    0.22586    0.07904    1.000
    N5186    N        0.89946    0.14082    0.06917    1.000
    Si5187   Si       0.89254    0.14588    0.11265    1.000
    N5188    N        0.92836    0.20654    0.05322    1.000
    N5189    N        0.87329    0.15252    0.00811    1.000
    N5190    N        0.92723    0.09461    0.19884    1.000
    Si5191   Si       0.89855    0.08625    0.16846    1.000
    N5192    N        0.87698    0.02591    0.22884    1.000
    N5193    N        0.90477    0.05154    0.14251    1.000
    N5194    N        0.90776    0.11429    0.13649    1.000
    N5195    N        0.89279    0.22738    0.12240    1.000
    Si5196   Si       0.89700    0.19696    0.15355    1.000
    N5197    N        0.92193    0.16689    0.23849    1.000
    N5198    N        0.87637    0.20330    0.19256    1.000
    Si5199   Si       0.88502    0.18904    0.23190    1.000
    N5200    N        0.91247    0.05607    0.28100    1.000
    Si5201   Si       0.90403    0.08918    0.30977    1.000
    N5202    N        0.90009    0.12560    0.28638    1.000
    Si5203   Si       0.87331    0.05015    0.26262    1.000
    N5204    N        0.87720    0.01253    0.34650    1.000
    Si5205   Si       0.90545    0.18307    0.33464    1.000
    N5206    N        0.90883    0.14509    0.36066    1.000
    N5207    N        0.88917    0.22281    0.25813    1.000
    N5208    N        0.91609    0.21616    0.36191    1.000
    N5209    N        0.92290    0.04036    0.39776    1.000
    Si5210   Si       0.91711    0.07967    0.41558    1.000
    N5211    N        0.88426    0.10749    0.41000    1.000
    N5212    N        0.90851    0.07663    0.45858    1.000
    Si5213   Si       0.91345    0.04394    0.48600    1.000
    Si5214   Si       0.88095    0.11119    0.45290    1.000
    N5215    N        0.88654    0.01166    0.47270    1.000
    Si5216   Si       0.87831    0.24778    0.48863    1.000
    N5217    N        0.90435    0.14163    0.47430    1.000
    Si5218   Si       0.90693    0.18280    0.45871    1.000
    Si5219   Si       0.88085    0.14679    0.39250    1.000
    Si5220   Si       0.88999    0.21936    0.39585    1.000
    N5221    N        0.88922    0.20691    0.49119    1.000
    N5222    N        0.89018    0.18166    0.41813    1.000
    N5223    N        0.89002    0.26305    0.40715    1.000
    N5224    N        0.91596    0.05431    0.52868    1.000
    Si5225   Si       0.91576    0.11218    0.59109    1.000
    N5226    N        0.88376    0.09857    0.56263    1.000
    Si5227   Si       0.87679    0.05871    0.54823    1.000
    Si5228   Si       0.90645    0.13386    0.51659    1.000
    N5229    N        0.91680    0.15697    0.58705    1.000
    Si5230   Si       0.88112    0.18010    0.59604    1.000
    N5231    N        0.88823    0.07333    0.68517    1.000
    N5232    N        0.90705    0.11071    0.63338    1.000
    Si5233   Si       0.86945    0.09745    0.65392    1.000
    N5234    N        0.87337    0.03493    0.74751    1.000
    Si5235   Si       0.93010    0.06325    0.67922    1.000
    Si5236   Si       0.92942    0.12019    0.72186    1.000
    N5237    N        0.90514    0.14364    0.69298    1.000
    Si5238   Si       0.92428    0.19138    0.72483    1.000
    N5239    N        0.88127    0.18652    0.64066    1.000
    N5240    N        0.92215    0.21121    0.68712    1.000
    Si5241   Si       0.90802    0.22122    0.64768    1.000
    N5242    N        0.88373    0.19730    0.74770    1.000
    Si5243   Si       0.87042    0.16442    0.67688    1.000
    Si5244   Si       0.89880    0.10614    0.79067    1.000
    N5245    N        0.87205    0.08365    0.81569    1.000
    N5246    N        0.91280    0.09248    0.75129    1.000
    Si5247   Si       0.91507    0.04998    0.74740    1.000
    N5248    N        0.89917    0.20248    0.80949    1.000
    Si5249   Si       0.90393    0.22717    0.77434    1.000
    N5250    N        0.89111    0.24434    0.85313    1.000
    Si5251   Si       0.92722    0.21606    0.84305    1.000
    N5252    N        0.86942    0.25380    0.78634    1.000
    N5253    N        0.89100    0.10592    0.95347    1.000
    N5254    N        0.91786    0.04047    0.96837    1.000
    N5255    N        0.91068    0.06638    0.90093    1.000
    Si5256   Si       0.89401    0.06431    0.94229    1.000
    Si5257   Si       0.90296    0.12512    0.99236    1.000
    Si5258   Si       0.87736    0.13023    0.91937    1.000
    N5259    N        0.90919    0.15457    0.90738    1.000
    Si5260   Si       0.88441    0.24963    0.98454    1.000
    N5261    N        0.88513    0.20828    0.97243    1.000
    Si5262   Si       0.89973    0.36776    0.08100    1.000
    Si5263   Si       0.91051    0.29575    0.09767    1.000
    N5264    N        0.91883    0.26437    0.06942    1.000
    N5265    N        0.92453    0.33248    0.07577    1.000
    N5266    N        0.87888    0.36493    0.11855    1.000
    N5267    N        0.91147    0.38084    0.00003    1.000
    N5268    N        0.87022    0.29440    0.11446    1.000
    N5269    N        0.92408    0.25716    0.00000    1.000
    N5270    N        0.86911    0.37409    0.05221    1.000
    Si5271   Si       0.92052    0.43793    0.09546    1.000
    N5272    N        0.90829    0.46650    0.06707    1.000
    Si5273   Si       0.88980    0.47342    0.02868    1.000
    Si5274   Si       0.87547    0.39773    0.01717    1.000
    N5275    N        0.92223    0.48626    0.00366    1.000
    N5276    N        0.87114    0.44184    0.00916    1.000
    Si5277   Si       0.92401    0.30311    0.17294    1.000
    N5278    N        0.89289    0.27267    0.17774    1.000
    N5279    N        0.90392    0.34146    0.18586    1.000
    Si5280   Si       0.87275    0.26154    0.14261    1.000
    N5281    N        0.88620    0.43330    0.11965    1.000
    Si5282   Si       0.92427    0.49518    0.16554    1.000
    N5283    N        0.91649    0.40253    0.22638    1.000
    N5284    N        0.90512    0.50051    0.12515    1.000
    N5285    N        0.91065    0.45989    0.18761    1.000
    N5286    N        0.89069    0.32065    0.30203    1.000
    Si5287   Si       0.88580    0.32904    0.34375    1.000
    N5288    N        0.88711    0.37105    0.34754    1.000
    Si5289   Si       0.90358    0.31601    0.26119    1.000
    N5290    N        0.92080    0.31311    0.36373    1.000
    N5291    N        0.92254    0.27729    0.25669    1.000
    Si5292   Si       0.91134    0.39739    0.32323    1.000
    Si5293   Si       0.89662    0.48685    0.29197    1.000
    N5294    N        0.88466    0.40659    0.29142    1.000
    N5295    N        0.91784    0.43439    0.34751    1.000
    N5296    N        0.92127    0.46576    0.26208    1.000
    N5297    N        0.92592    0.49752    0.32218    1.000
    Si5298   Si       0.87760    0.40249    0.24847    1.000
    Si5299   Si       0.91802    0.35005    0.45493    1.000
    N5300    N        0.87630    0.35294    0.44342    1.000
    Si5301   Si       0.92407    0.28852    0.39968    1.000
    N5302    N        0.89674    0.48155    0.49723    1.000
    Si5303   Si       0.91723    0.44322    0.49283    1.000
    N5304    N        0.92717    0.47238    0.40556    1.000
    N5305    N        0.87492    0.41503    0.40243    1.000
    Si5306   Si       0.89443    0.45021    0.38365    1.000
    N5307    N        0.88203    0.42037    0.47933    1.000
    Si5308   Si       0.88838    0.31736    0.58076    1.000
    N5309    N        0.88543    0.27767    0.56366    1.000
    Si5310   Si       0.92061    0.27911    0.53666    1.000
    N5311    N        0.91488    0.36309    0.49945    1.000
    N5312    N        0.88835    0.32653    0.62332    1.000
    N5313    N        0.91381    0.27271    0.49256    1.000
    Si5314   Si       0.88120    0.38774    0.50886    1.000
    N5315    N        0.90868    0.46618    0.58505    1.000
    N5316    N        0.90640    0.39949    0.59943    1.000
    Si5317   Si       0.90909    0.42908    0.56568    1.000
    Si5318   Si       0.87560    0.46790    0.61317    1.000
    N5319    N        0.87355    0.40912    0.54813    1.000
    N5320    N        0.92400    0.31710    0.67679    1.000
    N5321    N        0.88619    0.25989    0.65128    1.000
    N5322    N        0.87769    0.36794    0.68202    1.000
    Si5323   Si       0.91225    0.29592    0.63985    1.000
    Si5324   Si       0.92102    0.36025    0.68113    1.000
    Si5325   Si       0.92212    0.43397    0.67654    1.000
    N5326    N        0.89358    0.45684    0.65119    1.000
    N5327    N        0.89378    0.42613    0.70791    1.000
    Si5328   Si       0.88954    0.28667    0.85459    1.000
    N5329    N        0.87863    0.36081    0.83004    1.000
    Si5330   Si       0.91961    0.34432    0.82535    1.000
    Si5331   Si       0.90969    0.35191    0.75368    1.000
    N5332    N        0.92322    0.30328    0.83498    1.000
    N5333    N        0.88085    0.31972    0.74919    1.000
    N5334    N        0.88607    0.38865    0.76196    1.000
    Si5335   Si       0.89206    0.39371    0.85567    1.000
    Si5336   Si       0.90498    0.46061    0.85762    1.000
    N5337    N        0.88443    0.45764    0.76822    1.000
    N5338    N        0.88653    0.42901    0.83108    1.000
    Si5339   Si       0.90664    0.42592    0.74949    1.000
    Si5340   Si       0.87520    0.49386    0.74656    1.000
    N5341    N        0.89922    0.30583    0.89600    1.000
    Si5342   Si       0.90241    0.35517    0.96517    1.000
    N5343    N        0.92802    0.32229    0.95799    1.000
    N5344    N        0.90936    0.39043    0.94012    1.000
    N5345    N        0.91054    0.42834    0.88818    1.000
    N5346    N        0.87463    0.48493    0.87742    1.000
    Si5347   Si       0.88291    0.41102    0.91790    1.000
    N5348    N        0.90568    0.59684    0.04802    1.000
    N5349    N        0.91544    0.53420    0.07258    1.000
    Si5350   Si       0.89913    0.54192    0.11217    1.000
    N5351    N        0.91863    0.61900    0.11547    1.000
    N5352    N        0.89686    0.67049    0.06330    1.000
    Si5353   Si       0.89521    0.65325    0.10245    1.000
    Si5354   Si       0.91745    0.74608    0.05301    1.000
    N5355    N        0.87785    0.73434    0.06460    1.000
    N5356    N        0.88455    0.63878    0.99683    1.000
    N5357    N        0.92783    0.75439    0.01168    1.000
    N5358    N        0.90793    0.59564    0.17621    1.000
    N5359    N        0.91633    0.52757    0.19334    1.000
    Si5360   Si       0.88982    0.60898    0.21133    1.000
    Si5361   Si       0.90580    0.53777    0.23211    1.000
    N5362    N        0.87482    0.57140    0.23136    1.000
    Si5363   Si       0.87921    0.60361    0.14058    1.000
    N5364    N        0.92696    0.60923    0.23760    1.000
    N5365    N        0.90722    0.68372    0.12975    1.000
    Si5366   Si       0.89869    0.72080    0.15036    1.000
    Si5367   Si       0.92660    0.67022    0.16680    1.000
    N5368    N        0.89469    0.72057    0.23406    1.000
    Si5369   Si       0.87444    0.69279    0.20701    1.000
    N5370    N        0.89851    0.65839    0.19624    1.000
    N5371    N        0.90870    0.60778    0.34563    1.000
    N5372    N        0.88140    0.54092    0.35097    1.000
    N5373    N        0.88370    0.51882    0.26666    1.000
    Si5374   Si       0.92583    0.53639    0.34800    1.000
    Si5375   Si       0.87337    0.58301    0.34097    1.000
    Si5376   Si       0.88954    0.68771    0.30349    1.000
    N5377    N        0.88822    0.65041    0.28093    1.000
    N5378    N        0.90141    0.67683    0.34434    1.000
    N5379    N        0.92465    0.71296    0.29201    1.000
    Si5380   Si       0.92887    0.63999    0.27182    1.000
    N5381    N        0.90365    0.60590    0.40470    1.000
    N5382    N        0.88239    0.52081    0.43250    1.000
    Si5383   Si       0.92347    0.51348    0.42216    1.000
    N5384    N        0.90586    0.73295    0.39392    1.000
    N5385    N        0.89531    0.63136    0.46525    1.000
    Si5386   Si       0.90123    0.73228    0.43743    1.000
    Si5387   Si       0.90138    0.64049    0.37680    1.000
    Si5388   Si       0.92483    0.70013    0.37298    1.000
    N5389    N        0.89843    0.57920    0.56686    1.000
    Si5390   Si       0.89472    0.58975    0.52507    1.000
    Si5391   Si       0.91789    0.52096    0.49943    1.000
    N5392    N        0.89165    0.55679    0.49879    1.000
    Si5393   Si       0.87433    0.59306    0.60315    1.000
    N5394    N        0.90934    0.73525    0.51533    1.000
    Si5395   Si       0.87815    0.73200    0.59490    1.000
    N5396    N        0.88777    0.69432    0.61770    1.000
    N5397    N        0.88174    0.62927    0.62693    1.000
    Si5398   Si       0.90127    0.62389    0.66448    1.000
    N5399    N        0.87723    0.56014    0.63385    1.000
    Si5400   Si       0.91967    0.55061    0.64465    1.000
    N5401    N        0.92649    0.57228    0.73076    1.000
    Si5402   Si       0.90742    0.70233    0.65667    1.000
    N5403    N        0.92323    0.66234    0.66698    1.000
    N5404    N        0.88178    0.73027    0.67772    1.000
    N5405    N        0.90066    0.59580    0.78268    1.000
    N5406    N        0.89573    0.53999    0.84160    1.000
    N5407    N        0.89680    0.52317    0.76904    1.000
    Si5408   Si       0.91713    0.52101    0.80943    1.000
    Si5409   Si       0.89022    0.56404    0.75398    1.000
    Si5410   Si       0.87160    0.61670    0.80362    1.000
    N5411    N        0.88563    0.63296    0.84171    1.000
    Si5412   Si       0.89861    0.72997    0.80384    1.000
    N5413    N        0.91826    0.70060    0.83101    1.000
    N5414    N        0.90619    0.69020    0.76628    1.000
    Si5415   Si       0.92660    0.63591    0.85059    1.000
    Si5416   Si       0.91481    0.56053    0.87367    1.000
    Si5417   Si       0.88784    0.53571    0.93992    1.000
    N5418    N        0.89075    0.56661    0.90879    1.000
    N5419    N        0.88894    0.54349    0.98351    1.000
    Si5420   Si       0.92807    0.52433    0.98455    1.000
    N5421    N        0.92720    0.51590    0.94144    1.000
    Si5422   Si       0.91953    0.72907    0.93764    1.000
    N5423    N        0.87988    0.63118    0.93199    1.000
    N5424    N        0.89361    0.69665    0.95138    1.000
    N5425    N        0.91836    0.73078    0.89335    1.000
    Si5426   Si       0.90223    0.65475    0.96038    1.000
    Si5427   Si       0.90451    0.69494    0.87283    1.000
    N5428    N        0.89518    0.75964    0.95298    1.000
    Si5429   Si       0.90564    0.79464    0.10582    1.000
    N5430    N        0.91011    0.85584    0.02505    1.000
    N5431    N        0.93276    0.78300    0.07302    1.000
    Si5432   Si       0.88630    0.97066    0.07791    1.000
    N5433    N        0.88693    0.99358    0.00660    1.000
    Si5434   Si       0.88737    0.90356    0.11141    1.000
    N5435    N        0.91898    0.90216    0.08262    1.000
    N5436    N        0.87635    0.94544    0.11197    1.000
    N5437    N        0.92563    0.96363    0.05914    1.000
    Si5438   Si       0.92953    0.98656    0.02356    1.000
    Si5439   Si       0.88540    0.85331    0.14655    1.000
    Si5440   Si       0.91854    0.78613    0.16765    1.000
    N5441    N        0.91692    0.82222    0.13664    1.000
    N5442    N        0.89028    0.78238    0.19875    1.000
    Si5443   Si       0.88657    0.76334    0.23571    1.000
    N5444    N        0.90509    0.75889    0.13339    1.000
    N5445    N        0.90156    0.89388    0.15458    1.000
    N5446    N        0.90442    0.96445    0.21210    1.000
    Si5447   Si       0.92615    0.89586    0.23596    1.000
    N5448    N        0.88508    0.89735    0.22486    1.000
    Si5449   Si       0.86855    0.98932    0.20570    1.000
    Si5450   Si       0.88764    0.85562    0.32136    1.000
    Si5451   Si       0.91133    0.82649    0.26698    1.000
    N5452    N        0.91619    0.82393    0.30994    1.000
    N5453    N        0.91926    0.78353    0.25884    1.000
    N5454    N        0.91604    0.86846    0.35416    1.000
    Si5455   Si       0.92084    0.78097    0.31523    1.000
    N5456    N        0.86965    0.83837    0.26493    1.000
    N5457    N        0.88514    0.75711    0.32676    1.000
    Si5458   Si       0.87853    0.75447    0.36880    1.000
    N5459    N        0.88691    0.89033    0.29699    1.000
    Si5460   Si       0.90274    0.92675    0.30764    1.000
    N5461    N        0.88866    0.96629    0.29104    1.000
    Si5462   Si       0.91281    0.96546    0.25443    1.000
    N5463    N        0.88291    0.93694    0.34975    1.000
    Si5464   Si       0.91708    0.90888    0.36718    1.000
    Si5465   Si       0.88911    0.80487    0.46976    1.000
    N5466    N        0.90155    0.83791    0.44324    1.000
    N5467    N        0.90982    0.77141    0.45088    1.000
    Si5468   Si       0.87283    0.86928    0.42811    1.000
    N5469    N        0.87314    0.94649    0.46966    1.000
    N5470    N        0.88652    0.97558    0.40528    1.000
    N5471    N        0.89021    0.90249    0.40502    1.000
    Si5472   Si       0.89681    0.97664    0.44917    1.000
    Si5473   Si       0.90264    0.00537    0.37989    1.000
    Si5474   Si       0.89823    0.84951    0.52721    1.000
    N5475    N        0.90191    0.80808    0.51057    1.000
    Si5476   Si       0.91588    0.77405    0.53648    1.000
    N5477    N        0.92695    0.84885    0.56176    1.000
    Si5478   Si       0.92731    0.87501    0.59630    1.000
    N5479    N        0.90677    0.75861    0.57748    1.000
    N5480    N        0.90864    0.88691    0.50422    1.000
    N5481    N        0.91556    0.95180    0.52941    1.000
    N5482    N        0.91554    0.98155    0.60001    1.000
    N5483    N        0.90711    0.91283    0.59109    1.000
    Si5484   Si       0.88815    0.92607    0.50638    1.000
    Si5485   Si       0.92561    0.94837    0.57328    1.000
    Si5486   Si       0.86830    0.92252    0.60905    1.000
    Si5487   Si       0.92485    0.83831    0.65158    1.000
    N5488    N        0.89266    0.86716    0.65077    1.000
    N5489    N        0.89873    0.79723    0.73318    1.000
    N5490    N        0.91310    0.79524    0.65126    1.000
    Si5491   Si       0.87848    0.77020    0.65679    1.000
    Si5492   Si       0.88781    0.89976    0.67948    1.000
    N5493    N        0.91734    0.98508    0.67236    1.000
    N5494    N        0.87577    0.93147    0.65100    1.000
    N5495    N        0.91813    0.90970    0.71022    1.000
    Si5496   Si       0.87484    0.97114    0.66712    1.000
    N5497    N        0.91604    0.81363    0.80437    1.000
    Si5498   Si       0.87676    0.80072    0.81903    1.000
    Si5499   Si       0.92410    0.79255    0.76929    1.000
    N5500    N        0.89073    0.76185    0.83328    1.000
    Si5501   Si       0.91690    0.76639    0.86806    1.000
    N5502    N        0.89187    0.93012    0.82671    1.000
    Si5503   Si       0.87501    0.99562    0.84846    1.000
    Si5504   Si       0.91485    0.93356    0.74673    1.000
    N5505    N        0.87141    0.93685    0.75827    1.000
    Si5506   Si       0.87081    0.92598    0.86410    1.000
    N5507    N        0.93204    0.97404    0.74378    1.000
    N5508    N        0.91422    0.98763    0.87095    1.000
    Si5509   Si       0.90674    0.78245    0.98673    1.000
    N5510    N        0.89875    0.79574    0.89503    1.000
    Si5511   Si       0.89865    0.83636    0.88208    1.000
    Si5512   Si       0.90906    0.85411    0.98078    1.000
    N5513    N        0.87388    0.86058    0.90958    1.000
    N5514    N        0.92952    0.81577    0.97372    1.000
    Si5515   Si       0.90842    0.99934    0.96925    1.000
    Si5516   Si       0.88795    0.89755    0.92650    1.000
    N5517    N        0.92340    0.88599    0.95341    1.000
    N5518    N        0.88874    0.97651    0.93813    1.000
    Si5519   Si       0.91375    0.96337    0.90635    1.000
    N5520    N        0.89840    0.92340    0.89528    1.000
    Si5521   Si       0.93577    0.05618    0.00634    1.000
    N5522    N        0.93702    0.02697    0.03694    1.000
    Si5523   Si       0.94194    0.09530    0.11753    1.000
    N5524    N        0.97683    0.06905    0.00627    1.000
    N5525    N        0.97404    0.12660    0.12291    1.000
    N5526    N        0.92853    0.07617    0.08165    1.000
    N5527    N        0.94945    0.00836    0.10707    1.000
    N5528    N        0.98652    0.24319    0.03863    1.000
    Si5529   Si       0.93450    0.16779    0.07086    1.000
    Si5530   Si       0.97965    0.14681    0.00792    1.000
    N5531    N        0.96834    0.14783    0.05330    1.000
    Si5532   Si       0.94317    0.24620    0.03837    1.000
    N5533    N        0.92931    0.17251    0.11297    1.000
    N5534    N        0.94762    0.01409    0.17821    1.000
    Si5535   Si       0.96444    0.09756    0.22183    1.000
    N5536    N        0.97116    0.05719    0.23344    1.000
    N5537    N        0.96680    0.06688    0.13894    1.000
    Si5538   Si       0.94237    0.03156    0.14160    1.000
    N5539    N        0.93642    0.18576    0.17430    1.000
    Si5540   Si       0.95934    0.16307    0.14525    1.000
    N5541    N        0.95073    0.22679    0.23688    1.000
    Si5542   Si       0.95045    0.18916    0.21699    1.000
    Si5543   Si       0.94670    0.03594    0.26552    1.000
    N5544    N        0.96892    0.11882    0.26240    1.000
    N5545    N        0.93950    0.09154    0.33521    1.000
    Si5546   Si       0.97637    0.06988    0.32973    1.000
    N5547    N        0.97159    0.03911    0.30080    1.000
    Si5548   Si       0.94597    0.12294    0.36419    1.000
    Si5549   Si       0.95030    0.24198    0.35292    1.000
    Si5550   Si       0.97843    0.18289    0.32807    1.000
    N5551    N        0.93999    0.17736    0.30773    1.000
    N5552    N        0.97988    0.14832    0.35411    1.000
    N5553    N        0.94872    0.25017    0.31004    1.000
    Si5554   Si       0.93431    0.14853    0.27376    1.000
    N5555    N        0.98371    0.21609    0.35686    1.000
    Si5556   Si       0.92741    0.23584    0.27491    1.000
    Si5557   Si       0.96175    0.02485    0.38856    1.000
    N5558    N        0.94932    0.10524    0.40427    1.000
    N5559    N        0.95401    0.03204    0.47559    1.000
    N5560    N        0.98371    0.00865    0.42308    1.000
    Si5561   Si       0.98301    0.18137    0.46960    1.000
    N5562    N        0.94563    0.19735    0.45331    1.000
    Si5563   Si       0.95166    0.07732    0.54421    1.000
    N5564    N        0.94542    0.11895    0.53073    1.000
    N5565    N        0.94911    0.08230    0.58753    1.000
    Si5566   Si       0.96903    0.05989    0.61816    1.000
    N5567    N        0.98415    0.05035    0.53733    1.000
    Si5568   Si       0.98563    0.02461    0.50370    1.000
    Si5569   Si       0.95243    0.17732    0.60541    1.000
    Si5570   Si       0.95773    0.24856    0.59270    1.000
    N5571    N        0.94511    0.24600    0.54959    1.000
    N5572    N        0.97661    0.18748    0.51276    1.000
    Si5573   Si       0.97811    0.14675    0.53412    1.000
    N5574    N        0.97849    0.16203    0.57485    1.000
    Si5575   Si       0.98303    0.22411    0.53968    1.000
    N5576    N        0.93753    0.21697    0.61530    1.000
    N5577    N        0.93742    0.03524    0.71317    1.000
    N5578    N        0.95221    0.10017    0.68844    1.000
    N5579    N        0.94319    0.04085    0.64366    1.000
    Si5580   Si       0.93420    0.12975    0.66040    1.000
    N5581    N        0.95110    0.15633    0.73539    1.000
    N5582    N        0.96462    0.15703    0.64331    1.000
    Si5583   Si       0.95312    0.06166    0.81189    1.000
    N5584    N        0.95063    0.04077    0.84944    1.000
    N5585    N        0.93448    0.03588    0.78197    1.000
    N5586    N        0.93776    0.10264    0.81078    1.000
    Si5587   Si       0.95470    0.13069    0.83771    1.000
    N5588    N        0.95619    0.23871    0.81868    1.000
    Si5589   Si       0.97243    0.22266    0.78261    1.000
    N5590    N        0.93913    0.22567    0.75220    1.000
    N5591    N        0.94201    0.16984    0.84719    1.000
    Si5592   Si       0.99141    0.16094    0.75376    1.000
    N5593    N        0.96072    0.10530    0.87335    1.000
    N5594    N        0.97593    0.04356    0.91339    1.000
    Si5595   Si       0.95211    0.06489    0.88539    1.000
    N5596    N        0.98808    0.16439    0.90015    1.000
    Si5597   Si       0.96683    0.24486    0.90567    1.000
    N5598    N        0.94404    0.13820    0.98859    1.000
    Si5599   Si       0.94459    0.17257    0.89292    1.000
    N5600    N        0.94071    0.21641    0.88648    1.000
    Si5601   Si       0.96915    0.33487    0.07081    1.000
    N5602    N        0.97481    0.35794    0.03330    1.000
    N5603    N        0.98543    0.29707    0.08408    1.000
    N5604    N        0.98888    0.35906    0.10381    1.000
    N5605    N        0.97169    0.49820    0.06209    1.000
    N5606    N        0.95597    0.46069    0.10718    1.000
    N5607    N        0.95760    0.42616    0.01197    1.000
    Si5608   Si       0.97555    0.39893    0.10566    1.000
    Si5609   Si       0.93417    0.49671    0.08540    1.000
    N5610    N        0.93315    0.39719    0.08827    1.000
    Si5611   Si       0.98464    0.40140    0.03530    1.000
    Si5612   Si       0.97910    0.28426    0.12693    1.000
    N5613    N        0.96723    0.36026    0.18773    1.000
    N5614    N        0.93747    0.29835    0.13198    1.000
    N5615    N        0.95947    0.29519    0.19709    1.000
    Si5616   Si       0.95834    0.26937    0.23359    1.000
    Si5617   Si       0.93120    0.36408    0.21228    1.000
    Si5618   Si       0.92799    0.44530    0.22275    1.000
    N5619    N        0.96696    0.48985    0.16546    1.000
    Si5620   Si       0.98663    0.45950    0.14149    1.000
    N5621    N        0.97768    0.41543    0.14511    1.000
    N5622    N        0.96911    0.45730    0.22472    1.000
    N5623    N        0.97005    0.31811    0.31209    1.000
    Si5624   Si       0.96271    0.34814    0.28326    1.000
    Si5625   Si       0.95165    0.33918    0.34617    1.000
    N5626    N        0.94885    0.37438    0.31826    1.000
    Si5627   Si       0.98240    0.27831    0.30197    1.000
    N5628    N        0.93410    0.34380    0.25145    1.000
    Si5629   Si       0.96488    0.46718    0.26856    1.000
    Si5630   Si       0.94989    0.46269    0.33181    1.000
    N5631    N        0.96855    0.43884    0.30063    1.000
    N5632    N        0.97810    0.47668    0.36023    1.000
    Si5633   Si       0.98489    0.39972    0.30956    1.000
    N5634    N        0.97148    0.35612    0.38023    1.000
    Si5635   Si       0.96876    0.34107    0.42013    1.000
    Si5636   Si       0.95031    0.28680    0.47257    1.000
    N5637    N        0.95352    0.37208    0.44686    1.000
    N5638    N        0.93806    0.31281    0.43582    1.000
    N5639    N        0.95916    0.26626    0.38864    1.000
    N5640    N        0.98241    0.26002    0.45786    1.000
    N5641    N        0.97986    0.41970    0.40482    1.000
    Si5642   Si       0.96938    0.46259    0.40024    1.000
    N5643    N        0.95181    0.44176    0.46626    1.000
    Si5644   Si       0.96792    0.48179    0.46724    1.000
    Si5645   Si       0.97427    0.40985    0.44747    1.000
    Si5646   Si       0.96067    0.31807    0.58722    1.000
    Si5647   Si       0.94442    0.34411    0.52415    1.000
    N5648    N        0.94501    0.28515    0.61232    1.000
    N5649    N        0.96584    0.31108    0.50505    1.000
    N5650    N        0.96060    0.35188    0.61308    1.000
    N5651    N        0.97659    0.36203    0.54395    1.000
    N5652    N        0.92815    0.32065    0.55736    1.000
    Si5653   Si       0.94421    0.49048    0.59738    1.000
    N5654    N        0.97436    0.48523    0.56891    1.000
    N5655    N        0.97397    0.41810    0.59907    1.000
    Si5656   Si       0.97118    0.45650    0.53697    1.000
    N5657    N        0.93425    0.43511    0.53121    1.000
    N5658    N        0.98178    0.48584    0.50675    1.000
    Si5659   Si       0.94459    0.39203    0.61930    1.000
    N5660    N        0.98612    0.33972    0.68732    1.000
    Si5661   Si       0.96015    0.30745    0.69948    1.000
    N5662    N        0.97514    0.26716    0.68786    1.000
    Si5663   Si       0.98186    0.36747    0.72008    1.000
    N5664    N        0.93727    0.36291    0.72083    1.000
    N5665    N        0.95846    0.29806    0.74102    1.000
    Si5666   Si       0.96406    0.25580    0.73006    1.000
    N5667    N        0.93845    0.39653    0.66184    1.000
    N5668    N        0.95279    0.45777    0.69636    1.000
    Si5669   Si       0.96151    0.49165    0.67144    1.000
    N5670    N        0.96254    0.47494    0.63236    1.000
    Si5671   Si       0.97815    0.44119    0.72903    1.000
    Si5672   Si       0.95994    0.28095    0.83557    1.000
    Si5673   Si       0.97298    0.32274    0.77557    1.000
    N5674    N        0.93668    0.34357    0.78527    1.000
    N5675    N        0.98789    0.29974    0.80874    1.000
    N5676    N        0.93465    0.37869    0.84815    1.000
    N5677    N        0.94913    0.43022    0.75810    1.000
    Si5678   Si       0.97121    0.39841    0.85498    1.000
    Si5679   Si       0.96904    0.47680    0.84428    1.000
    N5680    N        0.98417    0.43632    0.83790    1.000
    N5681    N        0.92914    0.48361    0.82917    1.000
    N5682    N        0.97452    0.27622    0.87554    1.000
    N5683    N        0.94671    0.26968    0.93327    1.000
    Si5684   Si       0.94436    0.28515    0.97389    1.000
    N5685    N        0.97212    0.33571    0.90728    1.000
    Si5686   Si       0.93666    0.31065    0.91541    1.000
    N5687    N        0.97251    0.37774    0.96358    1.000
    Si5688   Si       0.97767    0.34278    0.99276    1.000
    N5689    N        0.97842    0.29921    0.99250    1.000
    Si5690   Si       0.95714    0.46380    0.98894    1.000
    N5691    N        0.98830    0.49522    0.99208    1.000
    Si5692   Si       0.94654    0.43585    0.90806    1.000
    Si5693   Si       0.93956    0.40391    0.97538    1.000
    N5694    N        0.95224    0.47454    0.88662    1.000
    N5695    N        0.94946    0.44366    0.95069    1.000
    N5696    N        0.97402    0.40594    0.89730    1.000
    N5697    N        0.96424    0.58266    0.07297    1.000
    N5698    N        0.95152    0.54696    0.01392    1.000
    Si5699   Si       0.95174    0.59259    0.11263    1.000
    N5700    N        0.97547    0.61161    0.01113    1.000
    Si5701   Si       0.98393    0.61500    0.05350    1.000
    Si5702   Si       0.98321    0.51943    0.02775    1.000
    Si5703   Si       0.98675    0.57261    0.00099    1.000
    Si5704   Si       0.93329    0.56522    0.04909    1.000
    N5705    N        0.95205    0.68222    0.01184    1.000
    N5706    N        0.94938    0.72038    0.06575    1.000
    N5707    N        0.96593    0.65157    0.06959    1.000
    Si5708   Si       0.93757    0.67927    0.05274    1.000
    Si5709   Si       0.95654    0.72445    0.00287    1.000
    Si5710   Si       0.96635    0.58042    0.23542    1.000
    N5711    N        0.97159    0.56924    0.19364    1.000
    N5712    N        0.93432    0.55905    0.13174    1.000
    Si5713   Si       0.93494    0.56238    0.17392    1.000
    N5714    N        0.98695    0.59906    0.13440    1.000
    N5715    N        0.96363    0.65025    0.17736    1.000
    N5716    N        0.93370    0.71334    0.17930    1.000
    N5717    N        0.96978    0.73338    0.23683    1.000
    Si5718   Si       0.96829    0.73413    0.19367    1.000
    Si5719   Si       0.95261    0.63902    0.21634    1.000
    Si5720   Si       0.95276    0.60015    0.33703    1.000
    N5721    N        0.95188    0.56027    0.32071    1.000
    Si5722   Si       0.97004    0.54132    0.28502    1.000
    N5723    N        0.94237    0.54738    0.25163    1.000
    N5724    N        0.95730    0.63186    0.30393    1.000
    N5725    N        0.96133    0.71880    0.35547    1.000
    Si5726   Si       0.96160    0.72446    0.31240    1.000
    Si5727   Si       0.93278    0.71002    0.24933    1.000
    N5728    N        0.94538    0.66997    0.24437    1.000
    N5729    N        0.96962    0.59750    0.37681    1.000
    Si5730   Si       0.97292    0.55069    0.46235    1.000
    N5731    N        0.95278    0.58517    0.44629    1.000
    N5732    N        0.94231    0.51888    0.46304    1.000
    Si5733   Si       0.93961    0.58280    0.40567    1.000
    N5734    N        0.93348    0.54142    0.38958    1.000
    Si5735   Si       0.93542    0.61643    0.47237    1.000
    N5736    N        0.97342    0.75294    0.48656    1.000
    Si5737   Si       0.95499    0.67761    0.43495    1.000
    N5738    N        0.93312    0.70983    0.45493    1.000
    N5739    N        0.96375    0.64890    0.46558    1.000
    N5740    N        0.93082    0.66685    0.39989    1.000
    N5741    N        0.97269    0.57934    0.56853    1.000
    Si5742   Si       0.97256    0.58959    0.52770    1.000
    N5743    N        0.93907    0.53124    0.53480    1.000
    Si5744   Si       0.98348    0.52079    0.53579    1.000
    N5745    N        0.93545    0.60455    0.51318    1.000
    N5746    N        0.98832    0.55438    0.50427    1.000
    Si5747   Si       0.93431    0.55710    0.57152    1.000
    N5748    N        0.93238    0.53298    0.60774    1.000
    N5749    N        0.96643    0.72483    0.58519    1.000
    N5750    N        0.97210    0.69215    0.51783    1.000
    Si5751   Si       0.98907    0.65920    0.49860    1.000
    Si5752   Si       0.94637    0.72075    0.49455    1.000
    N5753    N        0.98753    0.56689    0.67915    1.000
    N5754    N        0.93750    0.52584    0.67721    1.000
    Si5755   Si       0.95562    0.55185    0.70680    1.000
    Si5756   Si       0.97138    0.60348    0.66189    1.000
    N5757    N        0.98274    0.53464    0.73661    1.000
    N5758    N        0.92965    0.59007    0.66223    1.000
    N5759    N        0.98316    0.63208    0.69134    1.000
    Si5760   Si       0.98307    0.73689    0.70520    1.000
    N5761    N        0.94222    0.72542    0.64782    1.000
    Si5762   Si       0.98696    0.71838    0.62724    1.000
    N5763    N        0.96457    0.69796    0.71100    1.000
    N5764    N        0.94942    0.64071    0.74466    1.000
    Si5765   Si       0.96544    0.66912    0.67737    1.000
    N5766    N        0.98891    0.67793    0.64129    1.000
    N5767    N        0.95509    0.53884    0.79982    1.000
    N5768    N        0.98057    0.59867    0.77523    1.000
    Si5769   Si       0.93792    0.60167    0.76224    1.000
    N5770    N        0.93804    0.59658    0.85994    1.000
    Si5771   Si       0.98626    0.55413    0.77592    1.000
    N5772    N        0.95600    0.64627    0.82117    1.000
    Si5773   Si       0.95869    0.68884    0.82016    1.000
    N5774    N        0.97444    0.69701    0.77907    1.000
    Si5775   Si       0.97546    0.74261    0.77209    1.000
    N5776    N        0.98192    0.71307    0.84995    1.000
    Si5777   Si       0.94570    0.68364    0.74731    1.000
    N5778    N        0.93162    0.75043    0.77648    1.000
    Si5779   Si       0.97532    0.58049    0.87670    1.000
    N5780    N        0.95246    0.54267    0.88290    1.000
    N5781    N        0.98282    0.61043    0.91042    1.000
    Si5782   Si       0.95579    0.50949    0.91159    1.000
    N5783    N        0.94381    0.64863    0.95479    1.000
    Si5784   Si       0.96028    0.64840    0.91537    1.000
    Si5785   Si       0.97076    0.64927    0.98975    1.000
    N5786    N        0.93135    0.66149    0.88565    1.000
    N5787    N        0.95880    0.72987    0.95768    1.000
    N5788    N        0.95667    0.84396    0.07740    1.000
    Si5789   Si       0.96505    0.80634    0.05695    1.000
    Si5790   Si       0.93770    0.87339    0.05248    1.000
    N5791    N        0.98388    0.81679    0.01726    1.000
    N5792    N        0.98550    0.94369    0.09315    1.000
    N5793    N        0.96459    0.90560    0.03616    1.000
    Si5794   Si       0.95201    0.93161    0.06978    1.000
    Si5795   Si       0.95460    0.84075    0.12001    1.000
    N5796    N        0.95759    0.77497    0.18125    1.000
    Si5797   Si       0.97704    0.84472    0.23010    1.000
    N5798    N        0.98516    0.81058    0.12834    1.000
    N5799    N        0.98759    0.84165    0.18917    1.000
    Si5800   Si       0.98938    0.80315    0.17149    1.000
    N5801    N        0.98772    0.80381    0.24352    1.000
    N5802    N        0.93957    0.85480    0.24872    1.000
    N5803    N        0.96713    0.87832    0.13959    1.000
    Si5804   Si       0.98780    0.92924    0.20511    1.000
    N5805    N        0.98162    0.97120    0.20573    1.000
    Si5806   Si       0.94055    0.90821    0.16159    1.000
    Si5807   Si       0.94046    0.97342    0.19030    1.000
    Si5808   Si       0.96909    0.97288    0.12192    1.000
    N5809    N        0.95317    0.90591    0.20356    1.000
    N5810    N        0.94370    0.94958    0.15179    1.000
    Si5811   Si       0.94337    0.83285    0.35226    1.000
    N5812    N        0.94008    0.78679    0.35507    1.000
    Si5813   Si       0.96202    0.77150    0.25845    1.000
    N5814    N        0.96692    0.76880    0.30079    1.000
    N5815    N        0.98610    0.83689    0.34027    1.000
    N5816    N        0.93313    0.92679    0.26927    1.000
    N5817    N        0.94605    0.99429    0.25615    1.000
    N5818    N        0.94168    0.92800    0.33135    1.000
    Si5819   Si       0.96892    0.92861    0.29508    1.000
    Si5820   Si       0.95937    0.95414    0.36046    1.000
    N5821    N        0.94262    0.99265    0.36633    1.000
    Si5822   Si       0.98535    0.97431    0.25051    1.000
    Si5823   Si       0.97091    0.76140    0.37315    1.000
    Si5824   Si       0.94312    0.84282    0.43453    1.000
    N5825    N        0.96796    0.81424    0.45486    1.000
    N5826    N        0.95690    0.83813    0.39489    1.000
    Si5827   Si       0.95401    0.77162    0.45329    1.000
    N5828    N        0.97346    0.76178    0.41546    1.000
    Si5829   Si       0.95122    0.88341    0.49351    1.000
    Si5830   Si       0.96449    0.99170    0.45856    1.000
    N5831    N        0.95051    0.88306    0.44996    1.000
    N5832    N        0.94853    0.92656    0.39279    1.000
    Si5833   Si       0.95935    0.92447    0.43556    1.000
    N5834    N        0.93781    0.95932    0.44915    1.000
    N5835    N        0.95401    0.78653    0.54918    1.000
    Si5836   Si       0.96319    0.82864    0.54849    1.000
    N5837    N        0.97097    0.84990    0.51019    1.000
    Si5838   Si       0.94854    0.76339    0.58576    1.000
    Si5839   Si       0.98616    0.82138    0.61355    1.000
    Si5840   Si       0.96268    0.94883    0.51947    1.000
    N5841    N        0.96750    0.94712    0.56336    1.000
    N5842    N        0.97761    0.98201    0.50010    1.000
    N5843    N        0.98074    0.91597    0.49571    1.000
    N5844    N        0.96902    0.78246    0.61837    1.000
    N5845    N        0.95324    0.85356    0.62282    1.000
    Si5846   Si       0.94683    0.76653    0.65375    1.000
    N5847    N        0.95416    0.77092    0.69623    1.000
    N5848    N        0.94242    0.84410    0.69102    1.000
    Si5849   Si       0.93707    0.80703    0.71016    1.000
    N5850    N        0.98375    0.87980    0.73689    1.000
    N5851    N        0.97648    0.97486    0.63289    1.000
    N5852    N        0.98171    0.97321    0.69847    1.000
    N5853    N        0.97312    0.90523    0.66845    1.000
    Si5854   Si       0.98798    0.94701    0.66497    1.000
    Si5855   Si       0.95448    0.88547    0.70317    1.000
    Si5856   Si       0.94227    0.99220    0.70652    1.000
    Si5857   Si       0.93900    0.99636    0.63462    1.000
    N5858    N        0.95654    0.78402    0.85763    1.000
    Si5859   Si       0.94980    0.82249    0.83416    1.000
    N5860    N        0.97407    0.84279    0.80369    1.000
    Si5861   Si       0.98352    0.84335    0.76178    1.000
    N5862    N        0.93491    0.85034    0.86241    1.000
    N5863    N        0.95907    0.81007    0.74876    1.000
    Si5864   Si       0.96187    0.88233    0.86892    1.000
    Si5865   Si       0.95341    0.99636    0.77375    1.000
    N5866    N        0.96408    0.92463    0.85128    1.000
    N5867    N        0.94922    0.97755    0.81396    1.000
    Si5868   Si       0.95303    0.99771    0.85191    1.000
    Si5869   Si       0.93591    0.93604    0.81853    1.000
    N5870    N        0.93409    0.91556    0.78063    1.000
    Si5871   Si       0.97315    0.81795    0.97516    1.000
    N5872    N        0.98592    0.85775    0.96056    1.000
    Si5873   Si       0.98298    0.93974    0.88943    1.000
    N5874    N        0.97938    0.89536    0.90641    1.000
    N5875    N        0.94515    0.98162    0.98325    1.000
    N5876    N        0.98356    0.92584    0.97198    1.000
    Si5877   Si       0.96691    0.89305    0.94652    1.000
    Si5878   Si       0.97638    0.96515    0.95726    1.000
    N5879    N        0.95571    0.95604    0.91838    1.000
