# CIF file generated by openbabel 3.1.1, see https://openbabel.org
data_I
_chemical_name_common '3.01-42.aims'
_cell_length_a 39.867
_cell_length_b 39.867
_cell_length_c 39.867
_cell_angle_alpha 90
_cell_angle_beta 90
_cell_angle_gamma 90
loop_
    _atom_site_label
    _atom_site_type_symbol
    _atom_site_fract_x
    _atom_site_fract_y
    _atom_site_fract_z
    _atom_site_occupancy
    N0       N        0.99203    0.02644    0.07432    1.000
    N1       N        0.99134    0.09665    0.09914    1.000
    Si2      Si       0.01823    0.15102    0.01625    1.000
    Si3      Si       0.01885    0.22627    0.03998    1.000
    Si4      Si       0.00648    0.24658    0.10480    1.000
    N5       N        0.02135    0.19468    0.01092    1.000
    N6       N        0.00201    0.21209    0.07679    1.000
    N7       N        0.03932    0.16040    0.12168    1.000
    Si8      Si       0.00489    0.13180    0.12277    1.000
    N9       N        0.01590    0.04587    0.14287    1.000
    N10      N        0.00927    0.11071    0.16342    1.000
    Si11     Si       0.00159    0.07122    0.17644    1.000
    N12      N        0.02508    0.06118    0.21103    1.000
    Si13     Si       0.04354    0.01332    0.13334    1.000
    Si14     Si       0.02840    0.18884    0.22337    1.000
    N15      N        0.02647    0.14397    0.23541    1.000
    N16      N        0.99731    0.23138    0.14413    1.000
    Si17     Si       0.03072    0.19751    0.14672    1.000
    N18      N        0.01284    0.17801    0.18015    1.000
    Si19     Si       0.00511    0.13807    0.19525    1.000
    Si20     Si       0.01966    0.08963    0.36094    1.000
    Si21     Si       0.03196    0.03298    0.31644    1.000
    N22      N        0.03955    0.02513    0.27299    1.000
    N23      N        0.99912    0.08931    0.27192    1.000
    N24      N        0.04520    0.07488    0.32807    1.000
    Si25     Si       0.03042    0.06429    0.25404    1.000
    Si26     Si       0.01118    0.13140    0.27426    1.000
    N27      N        0.03547    0.12975    0.37506    1.000
    N28      N        0.04031    0.13871    0.30526    1.000
    Si29     Si       0.03328    0.15914    0.34230    1.000
    N30      N        0.99592    0.18007    0.34184    1.000
    N31      N        0.99945    0.25428    0.36166    1.000
    Si32     Si       0.04028    0.25550    0.27143    1.000
    N33      N        0.01986    0.10759    0.44582    1.000
    N34      N        0.02197    0.06265    0.39554    1.000
    Si35     Si       0.00907    0.12718    0.48881    1.000
    Si36     Si       0.99376    0.07586    0.42585    1.000
    Si37     Si       0.04910    0.12609    0.41707    1.000
    N38      N        0.00452    0.23207    0.45385    1.000
    Si39     Si       0.98992    0.21056    0.37301    1.000
    Si40     Si       0.00225    0.18930    0.44788    1.000
    Si41     Si       0.04070    0.25261    0.43723    1.000
    N42      N        0.01269    0.19112    0.40399    1.000
    N43      N        0.02619    0.16516    0.47564    1.000
    N44      N        0.02652    0.09207    0.58084    1.000
    Si45     Si       0.03340    0.05571    0.60086    1.000
    Si46     Si       0.04266    0.09853    0.54036    1.000
    N47      N        0.02513    0.08443    0.50326    1.000
    Si48     Si       0.01771    0.12767    0.60429    1.000
    N49      N        0.99703    0.02959    0.60363    1.000
    N50      N        0.02015    0.01209    0.50241    1.000
    Si51     Si       0.99644    0.04838    0.49769    1.000
    N52      N        0.05226    0.02146    0.58008    1.000
    N53      N        0.04458    0.21458    0.52530    1.000
    Si54     Si       0.00306    0.22487    0.53715    1.000
    N55      N        0.02738    0.13957    0.53363    1.000
    N56      N        0.00086    0.16400    0.58875    1.000
    Si57     Si       0.99387    0.20262    0.60656    1.000
    N58      N        0.99182    0.23797    0.57846    1.000
    N59      N        0.05141    0.02093    0.70381    1.000
    N60      N        0.00717    0.10425    0.70967    1.000
    Si61     Si       0.03232    0.02379    0.66534    1.000
    Si62     Si       0.04779    0.11701    0.72062    1.000
    N63      N        0.04597    0.05867    0.64160    1.000
    Si64     Si       0.99529    0.13304    0.67781    1.000
    N65      N        0.02618    0.16322    0.68015    1.000
    N66      N        0.99691    0.20874    0.73686    1.000
    N67      N        0.04000    0.15124    0.74763    1.000
    Si68     Si       0.03237    0.18512    0.71999    1.000
    N69      N        0.03009    0.21126    0.63084    1.000
    N70      N        0.00175    0.07032    0.78084    1.000
    Si71     Si       0.03718    0.09140    0.83845    1.000
    N72      N        0.99718    0.07875    0.84791    1.000
    N73      N        0.00089    0.01137    0.82537    1.000
    Si74     Si       0.04262    0.05532    0.77666    1.000
    N75      N        0.04426    0.01193    0.76899    1.000
    N76      N        0.04426    0.13201    0.82133    1.000
    Si77     Si       0.00256    0.22306    0.82129    1.000
    N78      N        0.03488    0.20004    0.80345    1.000
    Si79     Si       0.02774    0.15802    0.78995    1.000
    Si80     Si       0.03448    0.01609    0.92432    1.000
    N81      N        0.00221    0.11387    0.92039    1.000
    N82      N        0.01509    0.05260    0.93326    1.000
    Si83     Si       0.03661    0.08982    0.91994    1.000
    N84      N        0.04170    0.17776    0.87677    1.000
    Si85     Si       0.04001    0.20338    0.97194    1.000
    Si86     Si       0.00052    0.14765    0.94625    1.000
    N87      N        0.04056    0.16307    0.95640    1.000
    N88      N        0.02375    0.23625    0.95341    1.000
    Si89     Si       0.99839    0.17941    0.88451    1.000
    N90      N        0.98992    0.13343    0.98598    1.000
    Si91     Si       0.01017    0.36408    0.02068    1.000
    N92      N        0.02775    0.32279    0.01617    1.000
    N93      N        0.04019    0.34424    0.10584    1.000
    Si94     Si       0.99552    0.29263    0.01718    1.000
    N95      N        0.99579    0.38188    0.05869    1.000
    Si96     Si       0.02200    0.38157    0.09337    1.000
    N97      N        0.03321    0.40241    0.01146    1.000
    Si98     Si       0.00608    0.32087    0.12270    1.000
    Si99     Si       0.00624    0.33528    0.19819    1.000
    N100     N        0.00220    0.30634    0.16367    1.000
    N101     N        0.99709    0.37205    0.17736    1.000
    N102     N        0.00401    0.41076    0.12386    1.000
    Si103    Si       0.02311    0.40442    0.16383    1.000
    N104     N        0.03451    0.48585    0.23328    1.000
    Si105    Si       0.99634    0.48052    0.17845    1.000
    N106     N        0.01811    0.44281    0.18381    1.000
    Si107    Si       0.00072    0.51161    0.24489    1.000
    Si108    Si       0.02733    0.36331    0.30283    1.000
    N109     N        0.02413    0.33458    0.27195    1.000
    N110     N        0.00210    0.26883    0.25525    1.000
    N111     N        0.03489    0.40237    0.28339    1.000
    Si112    Si       0.02909    0.43104    0.31671    1.000
    Si113    Si       0.00844    0.49545    0.30254    1.000
    Si114    Si       0.99503    0.47240    0.36287    1.000
    N115     N        0.04243    0.47034    0.30428    1.000
    N116     N        0.98935    0.32351    0.37274    1.000
    N117     N        0.01993    0.31945    0.48834    1.000
    Si118    Si       0.99821    0.31315    0.45155    1.000
    N119     N        0.02361    0.29086    0.42301    1.000
    Si120    Si       0.01698    0.29015    0.37882    1.000
    Si121    Si       0.00192    0.35676    0.39954    1.000
    N122     N        0.00556    0.43440    0.45567    1.000
    N123     N        0.03784    0.50753    0.43810    1.000
    Si124    Si       0.04302    0.42319    0.47398    1.000
    N125     N        0.03577    0.48817    0.37042    1.000
    Si126    Si       0.01618    0.29593    0.52495    1.000
    N127     N        0.03575    0.28192    0.60513    1.000
    Si128    Si       0.99379    0.27891    0.59210    1.000
    N129     N        0.99316    0.31036    0.55950    1.000
    N130     N        0.99526    0.25916    0.51169    1.000
    N131     N        0.99661    0.38319    0.55520    1.000
    N132     N        0.03413    0.41203    0.51656    1.000
    N133     N        0.02258    0.48184    0.50440    1.000
    Si134    Si       0.03162    0.40775    0.56461    1.000
    N135     N        0.02493    0.44953    0.57489    1.000
    N136     N        0.03813    0.39654    0.61091    1.000
    Si137    Si       0.03926    0.47667    0.54433    1.000
    Si138    Si       0.03639    0.44086    0.61829    1.000
    Si139    Si       0.98780    0.40003    0.51547    1.000
    N140     N        0.04056    0.34223    0.71175    1.000
    Si141    Si       0.01847    0.36924    0.63853    1.000
    N142     N        0.01603    0.27688    0.72159    1.000
    Si143    Si       0.99956    0.35772    0.70673    1.000
    Si144    Si       0.04529    0.30610    0.73644    1.000
    N145     N        0.99061    0.38132    0.74446    1.000
    Si146    Si       0.00339    0.48737    0.72561    1.000
    Si147    Si       0.99284    0.42881    0.68194    1.000
    N148     N        0.04376    0.50338    0.73462    1.000
    N149     N        0.00480    0.38836    0.67559    1.000
    N150     N        0.00827    0.45215    0.64815    1.000
    N151     N        0.00886    0.44338    0.71938    1.000
    N152     N        0.01465    0.33502    0.84771    1.000
    Si153    Si       0.02823    0.30088    0.82104    1.000
    N154     N        0.01903    0.26068    0.83691    1.000
    N155     N        0.04728    0.31472    0.77875    1.000
    Si156    Si       0.02525    0.43367    0.82540    1.000
    N157     N        0.99872    0.43412    0.79050    1.000
    Si158    Si       0.01308    0.41802    0.75327    1.000
    N159     N        0.00137    0.44011    0.86142    1.000
    N160     N        0.99531    0.50261    0.84524    1.000
    N161     N        0.99584    0.27245    0.90764    1.000
    N162     N        0.04298    0.35263    0.95678    1.000
    Si163    Si       0.02343    0.34211    0.88833    1.000
    Si164    Si       0.00401    0.36839    0.94781    1.000
    Si165    Si       0.03662    0.27039    0.92927    1.000
    N166     N        0.04623    0.30581    0.90197    1.000
    Si167    Si       0.01080    0.42900    0.98594    1.000
    N168     N        0.00622    0.41229    0.94471    1.000
    Si169    Si       0.01944    0.49413    0.95257    1.000
    Si170    Si       0.02509    0.47989    0.87066    1.000
    Si171    Si       0.99719    0.43121    0.90744    1.000
    N172     N        0.01551    0.47416    0.91448    1.000
    N173     N        0.02932    0.46898    0.98648    1.000
    Si174    Si       0.03341    0.57587    0.02146    1.000
    N175     N        0.99522    0.57482    0.04452    1.000
    Si176    Si       0.00728    0.53620    0.05995    1.000
    N177     N        0.03396    0.53142    0.09431    1.000
    N178     N        0.03699    0.53124    0.02790    1.000
    Si179    Si       0.04004    0.56676    0.12216    1.000
    N180     N        0.00576    0.59389    0.12378    1.000
    N181     N        0.99713    0.64154    0.02427    1.000
    Si182    Si       0.03311    0.64250    0.05141    1.000
    N183     N        0.01567    0.65078    0.09171    1.000
    N184     N        0.00587    0.72604    0.04274    1.000
    Si185    Si       0.04464    0.71274    0.02563    1.000
    Si186    Si       0.99677    0.75812    0.07370    1.000
    N187     N        0.00216    0.54811    0.22176    1.000
    Si188    Si       0.01721    0.60823    0.16268    1.000
    Si189    Si       0.03305    0.54204    0.19385    1.000
    N190     N        0.99258    0.61352    0.19825    1.000
    N191     N        0.04716    0.57507    0.16513    1.000
    N192     N        0.02874    0.50814    0.16722    1.000
    Si193    Si       0.02249    0.71297    0.22132    1.000
    Si194    Si       0.02529    0.67575    0.12682    1.000
    N195     N        0.00315    0.71369    0.12885    1.000
    N196     N        0.03006    0.64927    0.16372    1.000
    Si197    Si       0.04022    0.73742    0.12804    1.000
    N198     N        0.04140    0.75608    0.16668    1.000
    Si199    Si       0.01793    0.57181    0.29373    1.000
    N200     N        0.00893    0.56791    0.33622    1.000
    N201     N        0.02035    0.53131    0.28223    1.000
    Si202    Si       0.03934    0.58589    0.36345    1.000
    Si203    Si       0.01613    0.65417    0.33969    1.000
    N204     N        0.02702    0.70651    0.26425    1.000
    Si205    Si       0.99883    0.71905    0.36214    1.000
    Si206    Si       0.99456    0.72838    0.28247    1.000
    N207     N        0.04718    0.65487    0.30820    1.000
    N208     N        0.02273    0.68539    0.37195    1.000
    N209     N        0.98998    0.70947    0.32125    1.000
    N210     N        0.01962    0.62346    0.37033    1.000
    N211     N        0.00290    0.54799    0.48754    1.000
    Si212    Si       0.03259    0.51743    0.48114    1.000
    Si213    Si       0.02906    0.52277    0.39795    1.000
    N214     N        0.01777    0.60955    0.46585    1.000
    N215     N        0.99772    0.67167    0.48876    1.000
    N216     N        0.01079    0.73850    0.45876    1.000
    Si217    Si       0.01870    0.65358    0.40268    1.000
    Si218    Si       0.03330    0.53036    0.59935    1.000
    Si219    Si       0.01361    0.58605    0.50702    1.000
    N220     N        0.04538    0.57325    0.60771    1.000
    N221     N        0.04137    0.51900    0.55922    1.000
    Si222    Si       0.00163    0.63329    0.56458    1.000
    N223     N        0.99635    0.52080    0.62057    1.000
    N224     N        0.01137    0.63553    0.61142    1.000
    N225     N        0.03635    0.64846    0.54172    1.000
    Si226    Si       0.02380    0.73802    0.54732    1.000
    Si227    Si       0.03872    0.67240    0.50510    1.000
    N228     N        0.99735    0.72199    0.57638    1.000
    N229     N        0.04347    0.71519    0.51408    1.000
    Si230    Si       0.01182    0.72097    0.61736    1.000
    Si231    Si       0.00942    0.59263    0.62237    1.000
    N232     N        0.00282    0.58016    0.66452    1.000
    N233     N        0.02201    0.59732    0.72797    1.000
    Si234    Si       0.03635    0.60151    0.68651    1.000
    N235     N        0.01813    0.71137    0.68899    1.000
    Si236    Si       0.03346    0.75060    0.68121    1.000
    N237     N        0.00996    0.66508    0.73787    1.000
    Si238    Si       0.03807    0.67666    0.70635    1.000
    N239     N        0.04089    0.64607    0.67516    1.000
    N240     N        0.01636    0.75764    0.64023    1.000
    Si241    Si       0.04502    0.65640    0.63133    1.000
    N242     N        0.00945    0.56839    0.84982    1.000
    Si243    Si       0.00524    0.53837    0.81995    1.000
    N244     N        0.04602    0.52672    0.80844    1.000
    N245     N        0.04585    0.62824    0.78535    1.000
    N246     N        0.01707    0.63751    0.84591    1.000
    Si247    Si       0.02569    0.72660    0.82190    1.000
    N248     N        0.02629    0.70780    0.85938    1.000
    Si249    Si       0.02089    0.66339    0.77936    1.000
    N250     N        0.04481    0.69882    0.79254    1.000
    Si251    Si       0.01008    0.55725    0.95073    1.000
    Si252    Si       0.02838    0.55413    0.88694    1.000
    N253     N        0.03736    0.57834    0.97931    1.000
    N254     N        0.03415    0.58650    0.91702    1.000
    Si255    Si       0.04353    0.62755    0.93231    1.000
    N256     N        0.99084    0.54023    0.90497    1.000
    N257     N        0.04416    0.52745    0.94392    1.000
    Si258    Si       0.00321    0.66636    0.98887    1.000
    Si259    Si       0.01623    0.66845    0.87585    1.000
    N260     N        0.01673    0.73715    0.92105    1.000
    N261     N        0.03315    0.69954    0.98575    1.000
    Si262    Si       0.02718    0.73641    0.96203    1.000
    N263     N        0.99436    0.75344    0.98523    1.000
    N264     N        0.00778    0.64524    0.95096    1.000
    N265     N        0.01717    0.84206    0.09625    1.000
    N266     N        0.00992    0.85598    0.02748    1.000
    Si267    Si       0.00166    0.79138    0.00789    1.000
    N268     N        0.03193    0.77078    0.09803    1.000
    N269     N        0.04306    0.80208    0.01245    1.000
    N270     N        0.98471    0.79279    0.04930    1.000
    Si271    Si       0.05054    0.81155    0.09659    1.000
    N272     N        0.00510    0.91238    0.10747    1.000
    N273     N        0.02068    0.95929    0.07552    1.000
    Si274    Si       0.03844    0.93955    0.11060    1.000
    Si275    Si       0.02540    0.00141    0.06322    1.000
    N276     N        0.03863    0.99510    0.02197    1.000
    N277     N        0.02200    0.92672    0.99638    1.000
    Si278    Si       0.00518    0.87341    0.12545    1.000
    Si279    Si       0.00579    0.77516    0.18325    1.000
    Si280    Si       0.04351    0.83065    0.16261    1.000
    N281     N        0.00289    0.81390    0.16440    1.000
    N282     N        0.02572    0.86945    0.23127    1.000
    N283     N        0.03171    0.87334    0.15980    1.000
    N284     N        0.00972    0.76101    0.22444    1.000
    N285     N        0.99855    0.93102    0.19050    1.000
    N286     N        0.03541    0.99415    0.20840    1.000
    N287     N        0.03176    0.97076    0.14049    1.000
    Si288    Si       0.02825    0.89809    0.19644    1.000
    Si289    Si       0.03288    0.95814    0.18274    1.000
    N290     N        0.00831    0.76714    0.29051    1.000
    Si291    Si       0.01126    0.79134    0.25628    1.000
    N292     N        0.99965    0.82609    0.34679    1.000
    Si293    Si       0.01415    0.86922    0.34249    1.000
    Si294    Si       0.99549    0.86662    0.26045    1.000
    Si295    Si       0.03669    0.76169    0.32274    1.000
    N296     N        0.01765    0.75820    0.36186    1.000
    N297     N        0.01301    0.88276    0.29913    1.000
    N298     N        0.03990    0.94227    0.33345    1.000
    Si299    Si       0.03253    0.97192    0.36333    1.000
    Si300    Si       0.03558    0.92363    0.29492    1.000
    N301     N        0.02059    0.95338    0.26467    1.000
    Si302    Si       0.04460    0.98625    0.25107    1.000
    N303     N        0.04977    0.00735    0.34555    1.000
    N304     N        0.99010    0.82017    0.48363    1.000
    N305     N        0.00398    0.85463    0.42255    1.000
    Si306    Si       0.01296    0.79702    0.37906    1.000
    Si307    Si       0.04615    0.85368    0.40472    1.000
    N308     N        0.98951    0.78697    0.41481    1.000
    Si309    Si       0.99466    0.89206    0.44207    1.000
    N310     N        0.03293    0.91481    0.45885    1.000
    N311     N        0.00372    0.97568    0.44638    1.000
    Si312    Si       0.04273    0.95360    0.44287    1.000
    Si313    Si       0.99320    0.98186    0.48894    1.000
    N314     N        0.00303    0.80467    0.59538    1.000
    Si315    Si       0.02309    0.79985    0.50553    1.000
    N316     N        0.00369    0.76677    0.52386    1.000
    Si317    Si       0.04207    0.79681    0.57864    1.000
    N318     N        0.04417    0.81768    0.53914    1.000
    N319     N        0.00014    0.87822    0.60812    1.000
    N320     N        0.02023    0.89877    0.54577    1.000
    N321     N        0.00972    0.96149    0.57968    1.000
    Si322    Si       0.02243    0.99378    0.60102    1.000
    Si323    Si       0.04040    0.93292    0.56711    1.000
    Si324    Si       0.01592    0.90673    0.50360    1.000
    N325     N        0.99912    0.94844    0.51364    1.000
    N326     N        0.02482    0.78434    0.70840    1.000
    N327     N        0.02633    0.85691    0.70760    1.000
    Si328    Si       0.00137    0.82158    0.69806    1.000
    N329     N        0.99145    0.82212    0.65709    1.000
    Si330    Si       0.04113    0.98904    0.73067    1.000
    Si331    Si       0.03170    0.89577    0.62978    1.000
    Si332    Si       0.02629    0.88261    0.74286    1.000
    N333     N        0.02133    0.92309    0.66349    1.000
    N334     N        0.03579    0.98722    0.64177    1.000
    N335     N        0.99783    0.91452    0.72936    1.000
    N336     N        0.99706    0.98069    0.72385    1.000
    Si337    Si       0.02599    0.86567    0.85106    1.000
    Si338    Si       0.01556    0.79422    0.83698    1.000
    N339     N        0.00528    0.86118    0.77597    1.000
    Si340    Si       0.00610    0.81829    0.76637    1.000
    N341     N        0.04061    0.83098    0.83064    1.000
    N342     N        0.04578    0.76477    0.82443    1.000
    N343     N        0.04823    0.80994    0.76291    1.000
    N344     N        0.99112    0.77692    0.86647    1.000
    N345     N        0.02567    0.90494    0.83303    1.000
    N346     N        0.01073    0.95456    0.78804    1.000
    Si347    Si       0.03211    0.98906    0.80324    1.000
    Si348    Si       0.99245    0.92931    0.81972    1.000
    Si349    Si       0.99415    0.77348    0.90979    1.000
    N350     N        0.02176    0.86648    0.95924    1.000
    N351     N        0.03406    0.87147    0.89097    1.000
    N352     N        0.02359    0.80559    0.92181    1.000
    Si353    Si       0.01333    0.84811    0.92237    1.000
    N354     N        0.00933    0.99608    0.89435    1.000
    Si355    Si       0.04739    0.91223    0.90467    1.000
    Si356    Si       0.04657    0.89520    0.97887    1.000
    Si357    Si       0.03757    0.96600    0.98729    1.000
    N358     N        0.00396    0.93109    0.91497    1.000
    N359     N        0.02371    0.98653    0.95322    1.000
    Si360    Si       0.09399    0.02207    0.07809    1.000
    N361     N        0.05370    0.01882    0.09021    1.000
    N362     N        0.09074    0.12881    0.08231    1.000
    N363     N        0.08538    0.04535    0.00380    1.000
    N364     N        0.05834    0.13252    0.01420    1.000
    Si365    Si       0.09354    0.13648    0.03764    1.000
    N366     N        0.10491    0.06081    0.06749    1.000
    Si367    Si       0.08204    0.15985    0.11171    1.000
    N368     N        0.09553    0.19681    0.09615    1.000
    Si369    Si       0.08541    0.23251    0.11842    1.000
    N370     N        0.04897    0.25159    0.10479    1.000
    N371     N        0.05066    0.25133    0.02605    1.000
    Si372    Si       0.07969    0.25702    0.99658    1.000
    Si373    Si       0.05511    0.03222    0.19933    1.000
    N374     N        0.09188    0.03919    0.22342    1.000
    N375     N        0.07446    0.02377    0.16155    1.000
    Si376    Si       0.09619    0.08108    0.23460    1.000
    N377     N        0.08298    0.10853    0.20396    1.000
    N378     N        0.10097    0.07926    0.13491    1.000
    Si379    Si       0.10456    0.10781    0.16629    1.000
    N380     N        0.06839    0.21645    0.15431    1.000
    Si381    Si       0.09657    0.20543    0.18671    1.000
    Si382    Si       0.07182    0.14003    0.22994    1.000
    N383     N        0.07336    0.17900    0.21080    1.000
    N384     N        0.10769    0.14576    0.14663    1.000
    N385     N        0.06388    0.09057    0.26141    1.000
    Si386    Si       0.06696    0.10429    0.30287    1.000
    N387     N        0.10825    0.10691    0.31223    1.000
    Si388    Si       0.09079    0.01355    0.35483    1.000
    N389     N        0.06436    0.18848    0.35155    1.000
    Si390    Si       0.07999    0.22099    0.32707    1.000
    N391     N        0.09858    0.15331    0.26176    1.000
    Si392    Si       0.09062    0.19764    0.25436    1.000
    N393     N        0.05489    0.25433    0.31237    1.000
    N394     N        0.04950    0.21371    0.25639    1.000
    N395     N        0.10720    0.21053    0.29396    1.000
    N396     N        0.10585    0.24831    0.35133    1.000
    N397     N        0.05375    0.04293    0.45572    1.000
    N398     N        0.09466    0.02505    0.39692    1.000
    N399     N        0.07618    0.08963    0.42561    1.000
    N400     N        0.09316    0.10036    0.48298    1.000
    Si401    Si       0.06205    0.05117    0.41308    1.000
    Si402    Si       0.05442    0.08442    0.46802    1.000
    N403     N        0.06865    0.25852    0.47030    1.000
    N404     N        0.07303    0.16140    0.42219    1.000
    Si405    Si       0.10496    0.23657    0.39291    1.000
    Si406    Si       0.05669    0.19100    0.39487    1.000
    N407     N        0.06404    0.23096    0.40728    1.000
    N408     N        0.08338    0.10507    0.55329    1.000
    Si409    Si       0.08959    0.12440    0.59212    1.000
    N410     N        0.08834    0.01642    0.51841    1.000
    N411     N        0.10292    0.09179    0.61943    1.000
    N412     N        0.09208    0.24131    0.60531    1.000
    Si413    Si       0.06918    0.24795    0.51240    1.000
    N414     N        0.09211    0.16153    0.51282    1.000
    N415     N        0.05686    0.14255    0.61586    1.000
    Si416    Si       0.04957    0.17233    0.51320    1.000
    N417     N        0.07660    0.11334    0.68657    1.000
    Si418    Si       0.08107    0.08130    0.65753    1.000
    Si419    Si       0.08481    0.04592    0.71703    1.000
    N420     N        0.06067    0.07751    0.74116    1.000
    N421     N        0.10503    0.05341    0.68001    1.000
    Si422    Si       0.05010    0.17582    0.64494    1.000
    Si423    Si       0.04694    0.26006    0.69673    1.000
    Si424    Si       0.09622    0.20841    0.68906    1.000
    N425     N        0.09079    0.18703    0.65096    1.000
    N426     N        0.10349    0.17418    0.71386    1.000
    Si427    Si       0.05471    0.24864    0.62472    1.000
    N428     N        0.05510    0.21946    0.70264    1.000
    N429     N        0.06260    0.06944    0.81239    1.000
    Si430    Si       0.10639    0.07306    0.81076    1.000
    N431     N        0.09432    0.21707    0.84282    1.000
    Si432    Si       0.07345    0.21989    0.80495    1.000
    Si433    Si       0.06096    0.14260    0.85977    1.000
    N434     N        0.10339    0.14789    0.85190    1.000
    N435     N        0.07718    0.25214    0.77757    1.000
    N436     N        0.09994    0.18722    0.78875    1.000
    Si437    Si       0.08779    0.06282    0.96292    1.000
    N438     N        0.07761    0.03031    0.93380    1.000
    N439     N        0.06531    0.09745    0.95007    1.000
    N440     N        0.05189    0.10415    0.87940    1.000
    N441     N        0.10782    0.01488    0.87925    1.000
    Si442    Si       0.07068    0.13478    0.97137    1.000
    N443     N        0.08189    0.21739    0.97602    1.000
    Si444    Si       0.07312    0.20786    0.88036    1.000
    N445     N        0.10013    0.19439    0.91106    1.000
    N446     N        0.06703    0.24669    0.90265    1.000
    Si447    Si       0.09253    0.23210    0.93552    1.000
    Si448    Si       0.08438    0.33782    0.10217    1.000
    N449     N        0.08885    0.30778    0.07146    1.000
    N450     N        0.09660    0.33344    0.00155    1.000
    Si451    Si       0.05598    0.42342    0.04215    1.000
    N452     N        0.09382    0.49610    0.00547    1.000
    N453     N        0.09763    0.41133    0.02831    1.000
    Si454    Si       0.07385    0.42518    0.11557    1.000
    N455     N        0.05613    0.40474    0.07958    1.000
    Si456    Si       0.05275    0.49379    0.08504    1.000
    Si457    Si       0.05229    0.49235    0.01560    1.000
    N458     N        0.06689    0.46857    0.11799    1.000
    N459     N        0.04789    0.46532    0.04988    1.000
    Si460    Si       0.10354    0.27118    0.22887    1.000
    N461     N        0.09896    0.32802    0.14379    1.000
    Si462    Si       0.08618    0.32989    0.18466    1.000
    N463     N        0.09642    0.28640    0.18930    1.000
    N464     N        0.04922    0.33336    0.20834    1.000
    N465     N        0.08156    0.47666    0.19300    1.000
    Si466    Si       0.07636    0.50340    0.22875    1.000
    Si467    Si       0.09380    0.40190    0.18427    1.000
    Si468    Si       0.06641    0.49231    0.15483    1.000
    N469     N        0.06616    0.40335    0.15199    1.000
    N470     N        0.06918    0.41385    0.21838    1.000
    Si471    Si       0.05080    0.45178    0.21158    1.000
    Si472    Si       0.08119    0.28164    0.33256    1.000
    N473     N        0.08561    0.35604    0.26740    1.000
    N474     N        0.06305    0.36036    0.32899    1.000
    Si475    Si       0.09922    0.34968    0.30768    1.000
    N476     N        0.06934    0.28261    0.25298    1.000
    N477     N        0.05721    0.29583    0.36541    1.000
    Si478    Si       0.05983    0.32621    0.24951    1.000
    N479     N        0.10857    0.30732    0.31112    1.000
    Si480    Si       0.06720    0.38249    0.36575    1.000
    N481     N        0.05488    0.42333    0.34942    1.000
    Si482    Si       0.07125    0.46172    0.36117    1.000
    Si483    Si       0.07211    0.39926    0.26038    1.000
    Si484    Si       0.08650    0.46829    0.29223    1.000
    N485     N        0.09826    0.42633    0.28180    1.000
    N486     N        0.10328    0.47198    0.33340    1.000
    N487     N        0.10258    0.49100    0.25927    1.000
    N488     N        0.08009    0.32019    0.44447    1.000
    Si489    Si       0.07124    0.32205    0.40023    1.000
    Si490    Si       0.05756    0.34073    0.47535    1.000
    Si491    Si       0.10151    0.28299    0.45414    1.000
    N492     N        0.04526    0.35709    0.39468    1.000
    N493     N        0.06016    0.38429    0.46657    1.000
    N494     N        0.08917    0.45863    0.40102    1.000
    N495     N        0.07330    0.45420    0.46676    1.000
    Si496    Si       0.07391    0.48345    0.43292    1.000
    N497     N        0.10514    0.39517    0.38094    1.000
    N498     N        0.07526    0.33241    0.58494    1.000
    Si499    Si       0.08328    0.31448    0.54657    1.000
    N500     N        0.07759    0.34419    0.51579    1.000
    Si501    Si       0.07766    0.37370    0.60188    1.000
    N502     N        0.05706    0.28302    0.53421    1.000
    Si503    Si       0.07389    0.38856    0.51620    1.000
    N504     N        0.07618    0.39719    0.56177    1.000
    N505     N        0.08402    0.46896    0.55401    1.000
    Si506    Si       0.09222    0.50005    0.58286    1.000
    N507     N        0.06279    0.50561    0.61679    1.000
    Si508    Si       0.10914    0.43107    0.55360    1.000
    N509     N        0.10540    0.41624    0.51058    1.000
    Si510    Si       0.06649    0.30830    0.62227    1.000
    Si511    Si       0.07016    0.35684    0.68388    1.000
    N512     N        0.07985    0.28375    0.71843    1.000
    N513     N        0.06190    0.27516    0.65974    1.000
    N514     N        0.05347    0.34416    0.64445    1.000
    Si515    Si       0.10383    0.28738    0.67745    1.000
    N516     N        0.09626    0.49914    0.68222    1.000
    N517     N        0.08061    0.39727    0.68802    1.000
    Si518    Si       0.08205    0.48834    0.72127    1.000
    Si519    Si       0.10314    0.41639    0.65476    1.000
    N520     N        0.10329    0.45131    0.73055    1.000
    N521     N        0.07576    0.44283    0.63681    1.000
    Si522    Si       0.08884    0.48298    0.64293    1.000
    Si523    Si       0.08580    0.40906    0.72812    1.000
    N524     N        0.07108    0.29852    0.83508    1.000
    Si525    Si       0.08803    0.31223    0.79626    1.000
    N526     N        0.09710    0.35538    0.80380    1.000
    Si527    Si       0.10767    0.26737    0.74826    1.000
    Si528    Si       0.07872    0.39374    0.86423    1.000
    Si529    Si       0.08312    0.39458    0.78942    1.000
    Si530    Si       0.09105    0.45449    0.84397    1.000
    N531     N        0.05477    0.40805    0.75929    1.000
    N532     N        0.05590    0.40110    0.82851    1.000
    N533     N        0.05103    0.46814    0.83605    1.000
    N534     N        0.10581    0.43598    0.80451    1.000
    N535     N        0.10003    0.50658    0.76508    1.000
    Si536    Si       0.06643    0.51107    0.84019    1.000
    N537     N        0.10521    0.33596    0.93588    1.000
    Si538    Si       0.07467    0.28281    0.87583    1.000
    Si539    Si       0.05943    0.32363    0.98584    1.000
    N540     N        0.06308    0.28346    0.96709    1.000
    Si541    Si       0.07502    0.36835    0.93309    1.000
    N542     N        0.05585    0.37132    0.89312    1.000
    N543     N        0.09369    0.47809    0.93507    1.000
    N544     N        0.08878    0.40689    0.95300    1.000
    Si545    Si       0.10004    0.43661    0.92118    1.000
    N546     N        0.08443    0.43429    0.88164    1.000
    N547     N        0.05754    0.60841    0.03660    1.000
    Si548    Si       0.10025    0.60640    0.02163    1.000
    N549     N        0.08086    0.57911    0.10842    1.000
    Si550    Si       0.10221    0.54078    0.10715    1.000
    N551     N        0.09549    0.50884    0.07646    1.000
    N552     N        0.05859    0.67636    0.04247    1.000
    N553     N        0.08043    0.73916    0.02146    1.000
    N554     N        0.09593    0.64870    0.09314    1.000
    Si555    Si       0.09941    0.66731    0.05414    1.000
    N556     N        0.07128    0.54443    0.21561    1.000
    N557     N        0.09120    0.52776    0.14758    1.000
    Si558    Si       0.08780    0.56245    0.17404    1.000
    N559     N        0.06853    0.61836    0.21965    1.000
    Si560    Si       0.07950    0.58341    0.24347    1.000
    Si561    Si       0.06377    0.65081    0.19362    1.000
    N562     N        0.09831    0.64802    0.16360    1.000
    N563     N        0.08828    0.75133    0.22524    1.000
    N564     N        0.05800    0.69167    0.20883    1.000
    Si565    Si       0.09712    0.67429    0.12868    1.000
    Si566    Si       0.09362    0.70833    0.22673    1.000
    N567     N        0.06279    0.69930    0.12586    1.000
    N568     N        0.10812    0.75848    0.16011    1.000
    N569     N        0.07708    0.60178    0.34550    1.000
    Si570    Si       0.07424    0.62133    0.30506    1.000
    N571     N        0.05714    0.58913    0.28112    1.000
    N572     N        0.09455    0.69559    0.26689    1.000
    N573     N        0.05997    0.72390    0.32156    1.000
    Si574    Si       0.09166    0.72044    0.34974    1.000
    Si575    Si       0.05838    0.69269    0.29145    1.000
    N576     N        0.10095    0.51885    0.43444    1.000
    Si577    Si       0.09276    0.55682    0.41350    1.000
    N578     N        0.09004    0.58796    0.44649    1.000
    Si579    Si       0.05919    0.61930    0.45572    1.000
    N580     N        0.07493    0.52488    0.49682    1.000
    N581     N        0.05364    0.55696    0.39219    1.000
    N582     N        0.05556    0.65196    0.42733    1.000
    N583     N        0.07166    0.64339    0.49041    1.000
    N584     N        0.09532    0.71292    0.39196    1.000
    Si585    Si       0.08414    0.68512    0.42425    1.000
    N586     N        0.07936    0.71676    0.45607    1.000
    Si587    Si       0.04953    0.73940    0.47844    1.000
    Si588    Si       0.06817    0.54447    0.53508    1.000
    Si589    Si       0.06861    0.62197    0.53000    1.000
    N590     N        0.05304    0.58230    0.52487    1.000
    N591     N        0.10207    0.62762    0.55393    1.000
    N592     N        0.10385    0.53562    0.56045    1.000
    Si593    Si       0.07787    0.72192    0.59754    1.000
    N594     N        0.05467    0.75403    0.57681    1.000
    N595     N        0.10602    0.69402    0.57880    1.000
    N596     N        0.04810    0.69650    0.61756    1.000
    Si597    Si       0.10747    0.65118    0.58938    1.000
    N598     N        0.07842    0.63325    0.61837    1.000
    Si599    Si       0.08160    0.58724    0.62565    1.000
    N600     N        0.07239    0.58447    0.66900    1.000
    N601     N        0.09195    0.61929    0.72532    1.000
    Si602    Si       0.10801    0.58977    0.69548    1.000
    N603     N        0.10314    0.74505    0.62554    1.000
    N604     N        0.07789    0.68925    0.71568    1.000
    Si605    Si       0.10439    0.65965    0.73283    1.000
    Si606    Si       0.09802    0.72964    0.71778    1.000
    N607     N        0.07731    0.75291    0.68660    1.000
    N608     N        0.07749    0.59642    0.84613    1.000
    N609     N        0.07417    0.56451    0.75920    1.000
    Si610    Si       0.05894    0.60378    0.75182    1.000
    Si611    Si       0.05881    0.52569    0.76796    1.000
    Si612    Si       0.05498    0.62934    0.82709    1.000
    N613     N        0.08189    0.66208    0.83709    1.000
    Si614    Si       0.08612    0.68957    0.80235    1.000
    N615     N        0.10239    0.72855    0.81823    1.000
    N616     N        0.05327    0.51814    0.88097    1.000
    Si617    Si       0.07620    0.51325    0.91851    1.000
    N618     N        0.08376    0.61737    0.94793    1.000
    Si619    Si       0.07460    0.57505    0.95574    1.000
    N620     N        0.09670    0.55151    0.92595    1.000
    N621     N        0.04940    0.65697    0.90217    1.000
    Si622    Si       0.04861    0.72603    0.89235    1.000
    Si623    Si       0.08830    0.66565    0.88124    1.000
    N624     N        0.08955    0.70842    0.89112    1.000
    N625     N        0.07436    0.83218    0.06278    1.000
    Si626    Si       0.05271    0.84178    0.02637    1.000
    N627     N        0.07362    0.87178    0.00324    1.000
    Si628    Si       0.07977    0.00446    0.01081    1.000
    N629     N        0.05977    0.81102    0.19613    1.000
    N630     N        0.09526    0.85674    0.23638    1.000
    N631     N        0.07208    0.81933    0.13169    1.000
    Si632    Si       0.07552    0.77284    0.18828    1.000
    Si633    Si       0.05718    0.83970    0.23000    1.000
    N634     N        0.10184    0.86482    0.17099    1.000
    Si635    Si       0.10936    0.83933    0.13440    1.000
    N636     N        0.07661    0.92467    0.12073    1.000
    N637     N        0.06113    0.92618    0.19013    1.000
    Si638    Si       0.08681    0.90574    0.16403    1.000
    Si639    Si       0.08171    0.81359    0.29116    1.000
    Si640    Si       0.09800    0.86533    0.34875    1.000
    N641     N        0.06349    0.79698    0.32608    1.000
    N642     N        0.09894    0.85284    0.30611    1.000
    Si643    Si       0.08402    0.79641    0.36483    1.000
    N644     N        0.05367    0.87127    0.36570    1.000
    N645     N        0.05026    0.81155    0.26198    1.000
    Si646    Si       0.10330    0.87965    0.27241    1.000
    N647     N        0.07625    0.91484    0.28106    1.000
    N648     N        0.08925    0.97505    0.24615    1.000
    Si649    Si       0.10532    0.94368    0.26939    1.000
    N650     N        0.10859    0.97450    0.36503    1.000
    N651     N        0.05747    0.78292    0.48190    1.000
    N652     N        0.07727    0.86563    0.43102    1.000
    Si653    Si       0.09724    0.79782    0.48129    1.000
    N654     N        0.05130    0.81153    0.39165    1.000
    Si655    Si       0.05974    0.01131    0.48530    1.000
    Si656    Si       0.06934    0.89167    0.46451    1.000
    N657     N        0.10191    0.91841    0.47048    1.000
    N658     N        0.05164    0.96524    0.40107    1.000
    N659     N        0.07437    0.97896    0.45926    1.000
    Si660    Si       0.09251    0.98003    0.40653    1.000
    N661     N        0.08569    0.86262    0.56961    1.000
    N662     N        0.07787    0.80686    0.60350    1.000
    Si663    Si       0.08286    0.84824    0.61058    1.000
    Si664    Si       0.07395    0.84871    0.53126    1.000
    N665     N        0.05601    0.86896    0.49846    1.000
    Si666    Si       0.07775    0.99599    0.55563    1.000
    Si667    Si       0.09579    0.94447    0.60963    1.000
    N668     N        0.06449    0.95798    0.54148    1.000
    N669     N        0.05676    0.92391    0.60629    1.000
    N670     N        0.10315    0.98361    0.59134    1.000
    Si671    Si       0.06339    0.85775    0.68699    1.000
    N672     N        0.08306    0.82464    0.70708    1.000
    Si673    Si       0.06481    0.78948    0.72689    1.000
    N674     N        0.05682    0.86117    0.64291    1.000
    N675     N        0.09452    0.95230    0.65235    1.000
    Si676    Si       0.08515    0.92336    0.71736    1.000
    N677     N        0.09142    0.89253    0.68675    1.000
    N678     N        0.05871    0.95606    0.70920    1.000
    Si679    Si       0.05297    0.95526    0.66530    1.000
    Si680    Si       0.06799    0.81687    0.80087    1.000
    N681     N        0.09545    0.85077    0.79365    1.000
    Si682    Si       0.08652    0.76241    0.84608    1.000
    N683     N        0.10053    0.79300    0.81197    1.000
    N684     N        0.09067    0.75867    0.75026    1.000
    Si685    Si       0.10058    0.88942    0.77754    1.000
    N686     N        0.06400    0.96924    0.82446    1.000
    Si687    Si       0.06171    0.92747    0.83444    1.000
    N688     N        0.09596    0.91555    0.81031    1.000
    Si689    Si       0.10665    0.96051    0.81781    1.000
    N690     N        0.06766    0.89883    0.74914    1.000
    N691     N        0.06096    0.76235    0.96119    1.000
    Si692    Si       0.06400    0.78755    0.92588    1.000
    N693     N        0.06457    0.76600    0.88641    1.000
    N694     N        0.10301    0.80648    0.92730    1.000
    Si695    Si       0.07482    0.77546    0.99941    1.000
    N696     N        0.06630    0.91267    0.94473    1.000
    N697     N        0.07825    0.92288    0.87413    1.000
    Si698    Si       0.09931    0.94081    0.95713    1.000
    N699     N        0.08133    0.97203    0.98051    1.000
    N700     N        0.15266    0.03591    0.02097    1.000
    N701     N        0.12125    0.10621    0.02099    1.000
    N702     N        0.15564    0.10600    0.10978    1.000
    Si703    Si       0.11867    0.06323    0.02634    1.000
    Si704    Si       0.11353    0.09480    0.09558    1.000
    Si705    Si       0.12752    0.19637    0.06527    1.000
    N706     N        0.15253    0.23520    0.06112    1.000
    Si707    Si       0.15613    0.24872    0.01820    1.000
    N708     N        0.11020    0.17790    0.03188    1.000
    N709     N        0.16355    0.17477    0.07679    1.000
    N710     N        0.15387    0.04545    0.15134    1.000
    N711     N        0.14618    0.10875    0.17911    1.000
    Si712    Si       0.11190    0.03610    0.14513    1.000
    N713     N        0.13542    0.09320    0.24721    1.000
    Si714    Si       0.15753    0.20778    0.21438    1.000
    N715     N        0.11095    0.22697    0.22477    1.000
    N716     N        0.13732    0.19887    0.17379    1.000
    Si717    Si       0.14672    0.15523    0.17200    1.000
    N718     N        0.12065    0.25563    0.12577    1.000
    Si719    Si       0.12908    0.07560    0.33380    1.000
    Si720    Si       0.12771    0.12390    0.27873    1.000
    N721     N        0.11667    0.03487    0.32653    1.000
    N722     N        0.14690    0.01491    0.26092    1.000
    Si723    Si       0.14134    0.00591    0.30485    1.000
    Si724    Si       0.14945    0.19414    0.29380    1.000
    Si725    Si       0.15058    0.24935    0.33980    1.000
    N726     N        0.15718    0.15114    0.29452    1.000
    N727     N        0.15841    0.14518    0.36612    1.000
    N728     N        0.16118    0.20548    0.33496    1.000
    N729     N        0.16786    0.21044    0.25655    1.000
    N730     N        0.13229    0.07973    0.37741    1.000
    Si731    Si       0.13441    0.04304    0.40010    1.000
    Si732    Si       0.11481    0.09515    0.44403    1.000
    N733     N        0.14095    0.06090    0.43854    1.000
    Si734    Si       0.15679    0.11299    0.39465    1.000
    N735     N        0.13579    0.12949    0.42865    1.000
    N736     N        0.14231    0.18788    0.46248    1.000
    Si737    Si       0.11635    0.16886    0.42897    1.000
    N738     N        0.12265    0.19789    0.39767    1.000
    Si739    Si       0.15948    0.18771    0.37636    1.000
    N740     N        0.15149    0.12056    0.52183    1.000
    Si741    Si       0.14188    0.07649    0.61177    1.000
    N742     N        0.15788    0.04439    0.50461    1.000
    N743     N        0.15826    0.07320    0.57236    1.000
    Si744    Si       0.12997    0.01180    0.51541    1.000
    N745     N        0.15108    0.00838    0.55415    1.000
    Si746    Si       0.10838    0.12087    0.51710    1.000
    N747     N        0.11050    0.23218    0.51678    1.000
    N748     N        0.12415    0.15043    0.58713    1.000
    Si749    Si       0.15685    0.14902    0.55643    1.000
    N750     N        0.15741    0.18527    0.53183    1.000
    Si751    Si       0.12399    0.19280    0.50427    1.000
    N752     N        0.14988    0.20115    0.62099    1.000
    N753     N        0.11203    0.02517    0.74173    1.000
    N754     N        0.13986    0.03629    0.62501    1.000
    Si755    Si       0.14024    0.03349    0.66917    1.000
    N756     N        0.13677    0.11211    0.72043    1.000
    Si757    Si       0.11115    0.13701    0.69359    1.000
    Si758    Si       0.12883    0.23923    0.62612    1.000
    N759     N        0.11784    0.24369    0.66961    1.000
    N760     N        0.12542    0.23025    0.73200    1.000
    Si761    Si       0.12442    0.16850    0.62616    1.000
    Si762    Si       0.15536    0.24586    0.70265    1.000
    N763     N        0.13982    0.14333    0.65809    1.000
    N764     N        0.12461    0.03394    0.81009    1.000
    Si765    Si       0.13333    0.03610    0.85396    1.000
    N766     N        0.12346    0.07820    0.85245    1.000
    N767     N        0.12608    0.10416    0.78921    1.000
    Si768    Si       0.15121    0.12176    0.76142    1.000
    Si769    Si       0.13154    0.11808    0.86528    1.000
    Si770    Si       0.13653    0.01327    0.77458    1.000
    N771     N        0.15534    0.16589    0.75937    1.000
    Si772    Si       0.11672    0.18250    0.82885    1.000
    N773     N        0.16019    0.18691    0.83293    1.000
    Si774    Si       0.11918    0.19038    0.75016    1.000
    Si775    Si       0.13792    0.11795    0.98191    1.000
    N776     N        0.12922    0.07891    0.96121    1.000
    N777     N        0.14849    0.01341    0.93661    1.000
    N778     N        0.13968    0.12915    0.90664    1.000
    Si779    Si       0.15987    0.05412    0.94366    1.000
    Si780    Si       0.12622    0.16420    0.92569    1.000
    Si781    Si       0.16388    0.22860    0.95159    1.000
    Si782    Si       0.11413    0.19069    0.99204    1.000
    N783     N        0.11075    0.15269    0.96678    1.000
    N784     N        0.15132    0.21515    0.99251    1.000
    N785     N        0.16457    0.18785    0.93305    1.000
    N786     N        0.12944    0.25368    0.93966    1.000
    N787     N        0.15034    0.32521    0.04500    1.000
    N788     N        0.11667    0.36475    0.08732    1.000
    Si789    Si       0.15567    0.33970    0.08485    1.000
    Si790    Si       0.11068    0.30902    0.03527    1.000
    N791     N        0.11849    0.27003    0.01328    1.000
    N792     N        0.16119    0.30374    0.10835    1.000
    Si793    Si       0.15485    0.25923    0.09960    1.000
    N794     N        0.13368    0.46820    0.05067    1.000
    Si795    Si       0.12012    0.40310    0.06593    1.000
    N796     N        0.11649    0.42970    0.10279    1.000
    Si797    Si       0.11639    0.47187    0.09042    1.000
    Si798    Si       0.15887    0.44774    0.02339    1.000
    N799     N        0.16228    0.40715    0.04490    1.000
    Si800    Si       0.11756    0.50669    0.03896    1.000
    N801     N        0.16308    0.29422    0.17589    1.000
    N802     N        0.11251    0.36311    0.19942    1.000
    Si803    Si       0.14929    0.37178    0.22107    1.000
    Si804    Si       0.12263    0.28941    0.15359    1.000
    N805     N        0.13669    0.29344    0.24365    1.000
    N806     N        0.14182    0.48580    0.12321    1.000
    N807     N        0.16104    0.45447    0.23719    1.000
    N808     N        0.12828    0.42680    0.17144    1.000
    Si809    Si       0.14647    0.44325    0.13561    1.000
    Si810    Si       0.16181    0.43541    0.19878    1.000
    Si811    Si       0.14376    0.30120    0.28758    1.000
    N812     N        0.13069    0.37560    0.32217    1.000
    N813     N        0.16100    0.26356    0.30035    1.000
    Si814    Si       0.13634    0.36419    0.36562    1.000
    N815     N        0.15619    0.38414    0.26206    1.000
    Si816    Si       0.13726    0.40942    0.29221    1.000
    Si817    Si       0.14695    0.46884    0.33841    1.000
    N818     N        0.16507    0.44362    0.30492    1.000
    Si819    Si       0.14377    0.49338    0.24557    1.000
    N820     N        0.11980    0.26986    0.41683    1.000
    Si821    Si       0.14734    0.30074    0.39247    1.000
    N822     N        0.13504    0.28176    0.48157    1.000
    N823     N        0.11246    0.32963    0.38622    1.000
    Si824    Si       0.12145    0.42925    0.40202    1.000
    N825     N        0.13378    0.47660    0.48913    1.000
    N826     N        0.13164    0.42429    0.44423    1.000
    N827     N        0.15211    0.44679    0.37590    1.000
    Si828    Si       0.11117    0.44147    0.47750    1.000
    N829     N        0.12138    0.29442    0.55161    1.000
    Si830    Si       0.13967    0.30293    0.59121    1.000
    N831     N        0.15411    0.34440    0.58914    1.000
    N832     N        0.15701    0.26697    0.60795    1.000
    Si833    Si       0.13744    0.26697    0.52180    1.000
    Si834    Si       0.14850    0.38736    0.60102    1.000
    N835     N        0.14629    0.42070    0.57442    1.000
    N836     N        0.12122    0.48535    0.61094    1.000
    Si837    Si       0.16076    0.49932    0.61911    1.000
    Si838    Si       0.14756    0.33109    0.70693    1.000
    Si839    Si       0.12761    0.34393    0.64871    1.000
    N840     N        0.14468    0.28784    0.70511    1.000
    N841     N        0.11309    0.38127    0.62586    1.000
    N842     N        0.11093    0.30638    0.63138    1.000
    N843     N        0.10788    0.33512    0.68800    1.000
    N844     N        0.17125    0.35147    0.73706    1.000
    N845     N        0.15557    0.49346    0.71489    1.000
    N846     N        0.14009    0.43656    0.66966    1.000
    Si847    Si       0.14400    0.45212    0.71041    1.000
    Si848    Si       0.13587    0.36299    0.82260    1.000
    N849     N        0.12551    0.29796    0.77422    1.000
    Si850    Si       0.14845    0.29276    0.85743    1.000
    N851     N        0.15485    0.32604    0.82943    1.000
    N852     N        0.15335    0.26309    0.82705    1.000
    Si853    Si       0.16107    0.29623    0.79782    1.000
    N854     N        0.11980    0.38276    0.86081    1.000
    Si855    Si       0.15612    0.39015    0.75484    1.000
    N856     N        0.15821    0.46545    0.78639    1.000
    N857     N        0.15221    0.44865    0.85256    1.000
    Si858    Si       0.14732    0.49124    0.85931    1.000
    Si859    Si       0.14924    0.43136    0.81193    1.000
    N860     N        0.16003    0.39176    0.79910    1.000
    Si861    Si       0.11700    0.46650    0.77458    1.000
    N862     N        0.10706    0.49565    0.84568    1.000
    N863     N        0.11345    0.38947    0.75381    1.000
    Si864    Si       0.12764    0.29692    0.92678    1.000
    N865     N        0.11643    0.29187    0.88464    1.000
    Si866    Si       0.12916    0.34076    0.97266    1.000
    N867     N        0.15967    0.31519    0.94991    1.000
    N868     N        0.14550    0.37715    0.98467    1.000
    Si869    Si       0.11345    0.40714    0.98707    1.000
    N870     N        0.14214    0.42330    0.91809    1.000
    N871     N        0.13800    0.44782    0.98198    1.000
    Si872    Si       0.15142    0.41016    0.87712    1.000
    Si873    Si       0.11766    0.48454    0.97227    1.000
    N874     N        0.14271    0.55200    0.09991    1.000
    N875     N        0.15263    0.53343    0.03465    1.000
    N876     N        0.12202    0.59528    0.05762    1.000
    Si877    Si       0.15578    0.56850    0.06202    1.000
    Si878    Si       0.11297    0.60803    0.10097    1.000
    N879     N        0.12535    0.70052    0.05845    1.000
    Si880    Si       0.12390    0.73014    0.02754    1.000
    Si881    Si       0.15542    0.69253    0.08819    1.000
    N882     N        0.11446    0.64793    0.01585    1.000
    N883     N        0.15458    0.75912    0.03792    1.000
    N884     N        0.14822    0.51957    0.21115    1.000
    Si885    Si       0.14350    0.56310    0.22041    1.000
    N886     N        0.12281    0.58212    0.18817    1.000
    Si887    Si       0.13231    0.62270    0.17374    1.000
    N888     N        0.14259    0.61795    0.13183    1.000
    N889     N        0.12592    0.69984    0.19630    1.000
    N890     N        0.16092    0.63743    0.20535    1.000
    Si891    Si       0.15950    0.67920    0.21799    1.000
    N892     N        0.13408    0.69687    0.12679    1.000
    N893     N        0.15865    0.75097    0.23839    1.000
    Si894    Si       0.13421    0.72333    0.16067    1.000
    N895     N        0.14299    0.57945    0.32552    1.000
    Si896    Si       0.14060    0.59839    0.28633    1.000
    Si897    Si       0.15557    0.55083    0.35737    1.000
    N898     N        0.11912    0.57487    0.25557    1.000
    Si899    Si       0.11754    0.59904    0.35707    1.000
    N900     N        0.16194    0.50979    0.34135    1.000
    N901     N        0.11403    0.63375    0.29267    1.000
    N902     N        0.15960    0.68431    0.26271    1.000
    Si903    Si       0.12718    0.67516    0.28962    1.000
    Si904    Si       0.14546    0.67616    0.35800    1.000
    N905     N        0.11478    0.68778    0.33057    1.000
    N906     N        0.16060    0.73996    0.30898    1.000
    N907     N        0.12260    0.56503    0.38242    1.000
    N908     N        0.14505    0.54822    0.48070    1.000
    Si909    Si       0.13047    0.58615    0.46572    1.000
    N910     N        0.15623    0.60101    0.43189    1.000
    Si911    Si       0.11469    0.51457    0.47715    1.000
    N912     N        0.14595    0.73464    0.43527    1.000
    N913     N        0.16161    0.71684    0.37333    1.000
    N914     N        0.13435    0.63637    0.37225    1.000
    Si915    Si       0.11276    0.65356    0.48021    1.000
    Si916    Si       0.13176    0.74334    0.39209    1.000
    Si917    Si       0.11937    0.72642    0.47021    1.000
    N918     N        0.11893    0.66170    0.43813    1.000
    Si919    Si       0.14682    0.63894    0.41576    1.000
    Si920    Si       0.13872    0.55656    0.57748    1.000
    Si921    Si       0.14149    0.62199    0.53612    1.000
    N922     N        0.16025    0.58773    0.55455    1.000
    N923     N        0.12111    0.57512    0.61345    1.000
    N924     N        0.13352    0.61783    0.49402    1.000
    N925     N        0.14731    0.63972    0.60924    1.000
    Si926    Si       0.14039    0.72070    0.57335    1.000
    N927     N        0.16239    0.65844    0.53966    1.000
    N928     N        0.11989    0.75780    0.56241    1.000
    N929     N        0.12782    0.69136    0.49428    1.000
    N930     N        0.13943    0.60885    0.67229    1.000
    Si931    Si       0.13249    0.51932    0.68670    1.000
    N932     N        0.15832    0.52326    0.65374    1.000
    Si933    Si       0.15201    0.60313    0.63052    1.000
    N934     N        0.12216    0.55335    0.71313    1.000
    Si935    Si       0.16393    0.70213    0.71112    1.000
    N936     N        0.14294    0.66442    0.71198    1.000
    Si937    Si       0.11746    0.75590    0.66422    1.000
    N938     N        0.13695    0.73066    0.69519    1.000
    N939     N        0.13610    0.57420    0.78081    1.000
    Si940    Si       0.11761    0.60485    0.85851    1.000
    N941     N        0.14375    0.62670    0.83076    1.000
    Si942    Si       0.16199    0.60313    0.79911    1.000
    N943     N        0.14036    0.56848    0.86516    1.000
    Si944    Si       0.11585    0.54890    0.75500    1.000
    Si945    Si       0.15635    0.67243    0.77815    1.000
    N946     N        0.11353    0.67327    0.77318    1.000
    Si947    Si       0.13518    0.55758    0.90675    1.000
    N948     N        0.15176    0.59085    0.93194    1.000
    Si949    Si       0.12390    0.62531    0.93503    1.000
    N950     N        0.14440    0.51763    0.96605    1.000
    N951     N        0.15151    0.51490    0.89687    1.000
    N952     N        0.10595    0.57265    0.99360    1.000
    N953     N        0.11451    0.63238    0.89185    1.000
    Si954    Si       0.14332    0.55079    0.99402    1.000
    N955     N        0.14805    0.71261    0.99401    1.000
    N956     N        0.15010    0.65694    0.94908    1.000
    Si957    Si       0.14866    0.66647    0.99433    1.000
    Si958    Si       0.13039    0.72516    0.89002    1.000
    N959     N        0.15233    0.68745    0.87860    1.000
    N960     N        0.15330    0.72218    0.92815    1.000
    Si961    Si       0.16610    0.68264    0.92016    1.000
    N962     N        0.14289    0.82037    0.06954    1.000
    Si963    Si       0.14661    0.80188    0.03030    1.000
    N964     N        0.11541    0.87265    0.10593    1.000
    Si965    Si       0.11269    0.85335    0.06650    1.000
    N966     N        0.11260    0.79630    0.00275    1.000
    N967     N        0.12726    0.88690    0.04065    1.000
    N968     N        0.11566    0.00702    0.11247    1.000
    Si969    Si       0.15323    0.91897    0.05393    1.000
    N970     N        0.13925    0.93992    0.09080    1.000
    Si971    Si       0.14893    0.97918    0.10582    1.000
    Si972    Si       0.14994    0.99461    0.03913    1.000
    Si973    Si       0.11886    0.91413    0.11664    1.000
    N974     N        0.16062    0.95443    0.02687    1.000
    N975     N        0.10713    0.99740    0.04422    1.000
    N976     N        0.16173    0.86300    0.20181    1.000
    Si977    Si       0.12188    0.77443    0.24009    1.000
    N978     N        0.12749    0.80225    0.20651    1.000
    Si979    Si       0.12192    0.84692    0.20521    1.000
    N980     N        0.14530    0.81604    0.13911    1.000
    Si981    Si       0.14167    0.78501    0.16992    1.000
    Si982    Si       0.11784    0.00580    0.23098    1.000
    Si983    Si       0.15214    0.95672    0.17688    1.000
    Si984    Si       0.16278    0.89728    0.17577    1.000
    N985     N        0.12850    0.92297    0.15994    1.000
    N986     N        0.14193    0.99355    0.19660    1.000
    Si987    Si       0.13434    0.77474    0.31882    1.000
    N988     N        0.15998    0.80696    0.32865    1.000
    N989     N        0.11313    0.78580    0.27970    1.000
    N990     N        0.11143    0.76306    0.35562    1.000
    Si991    Si       0.15591    0.81625    0.36932    1.000
    N992     N        0.13565    0.91204    0.26067    1.000
    Si993    Si       0.12548    0.94407    0.34156    1.000
    N994     N        0.12411    0.96575    0.30252    1.000
    N995     N        0.11669    0.90354    0.34881    1.000
    N996     N        0.16652    0.95160    0.35563    1.000
    N997     N        0.11342    0.83332    0.37616    1.000
    Si998    Si       0.11465    0.84661    0.41952    1.000
    Si999    Si       0.15071    0.78139    0.44344    1.000
    N1000    N        0.11597    0.81092    0.44430    1.000
    N1001    N        0.15288    0.78434    0.39906    1.000
    N1002    N        0.14712    0.87464    0.42153    1.000
    N1003    N        0.12613    0.76502    0.48924    1.000
    Si1004   Si       0.11394    0.95918    0.46389    1.000
    N1005    N        0.13145    0.96724    0.42484    1.000
    N1006    N        0.13837    0.97610    0.49323    1.000
    Si1007   Si       0.16177    0.97090    0.39381    1.000
    Si1008   Si       0.14838    0.83820    0.52038    1.000
    N1009    N        0.15222    0.87110    0.54901    1.000
    N1010    N        0.14684    0.79917    0.60548    1.000
    Si1011   Si       0.12633    0.87803    0.58218    1.000
    Si1012   Si       0.10839    0.77842    0.59767    1.000
    Si1013   Si       0.14585    0.76834    0.52736    1.000
    N1014    N        0.10775    0.82516    0.51404    1.000
    N1015    N        0.12588    0.91796    0.59418    1.000
    Si1016   Si       0.14163    0.00226    0.59644    1.000
    N1017    N        0.12323    0.86081    0.62269    1.000
    N1018    N        0.13519    0.79559    0.67066    1.000
    Si1019   Si       0.15815    0.87464    0.72459    1.000
    N1020    N        0.15066    0.83302    0.73671    1.000
    Si1021   Si       0.12660    0.82442    0.70314    1.000
    N1022    N        0.14643    0.85602    0.68149    1.000
    Si1023   Si       0.14731    0.82894    0.64275    1.000
    Si1024   Si       0.13109    0.95461    0.67492    1.000
    N1025    N        0.15450    0.99161    0.67627    1.000
    N1026    N        0.15300    0.91888    0.66158    1.000
    N1027    N        0.12378    0.94558    0.71753    1.000
    Si1028   Si       0.12507    0.88587    0.65890    1.000
    Si1029   Si       0.12361    0.83081    0.82059    1.000
    N1030    N        0.12219    0.83848    0.86249    1.000
    N1031    N        0.15499    0.76779    0.77504    1.000
    N1032    N        0.16398    0.83537    0.80234    1.000
    Si1033   Si       0.11324    0.75830    0.78746    1.000
    N1034    N        0.12862    0.76594    0.87043    1.000
    N1035    N        0.13587    0.95788    0.84984    1.000
    N1036    N        0.12707    0.97060    0.78199    1.000
    N1037    N        0.13651    0.89822    0.75501    1.000
    Si1038   Si       0.14453    0.94143    0.75614    1.000
    Si1039   Si       0.15838    0.85926    0.87590    1.000
    Si1040   Si       0.12878    0.80947    0.96240    1.000
    Si1041   Si       0.12775    0.80419    0.89152    1.000
    N1042    N        0.13580    0.85194    0.97621    1.000
    N1043    N        0.16361    0.78205    0.95656    1.000
    Si1044   Si       0.11490    0.88122    0.99852    1.000
    Si1045   Si       0.10956    0.00202    0.92040    1.000
    N1046    N        0.15312    0.90092    0.88699    1.000
    N1047    N        0.11753    0.95719    0.92103    1.000
    Si1048   Si       0.12038    0.93256    0.88429    1.000
    N1049    N        0.12859    0.91885    0.97995    1.000
    Si1050   Si       0.19244    0.05078    0.01334    1.000
    N1051    N        0.19890    0.08939    0.03089    1.000
    N1052    N        0.22005    0.12427    0.09147    1.000
    Si1053   Si       0.21292    0.12294    0.00556    1.000
    Si1054   Si       0.21313    0.01999    0.07683    1.000
    N1055    N        0.21943    0.02084    0.03357    1.000
    Si1056   Si       0.17907    0.14257    0.10259    1.000
    Si1057   Si       0.19005    0.20974    0.07219    1.000
    N1058    N        0.21379    0.22448    0.03866    1.000
    N1059    N        0.18358    0.23127    0.11557    1.000
    N1060    N        0.22443    0.15797    0.03195    1.000
    N1061    N        0.21476    0.01443    0.17087    1.000
    N1062    N        0.17864    0.05001    0.21357    1.000
    N1063    N        0.20316    0.11043    0.23064    1.000
    N1064    N        0.20850    0.08659    0.15808    1.000
    Si1065   Si       0.17283    0.01993    0.18028    1.000
    Si1066   Si       0.16671    0.09381    0.21699    1.000
    Si1067   Si       0.16685    0.08836    0.14720    1.000
    Si1068   Si       0.20879    0.15446    0.22741    1.000
    N1069    N        0.18077    0.16114    0.14220    1.000
    N1070    N        0.16718    0.16261    0.21209    1.000
    Si1071   Si       0.17726    0.20428    0.14989    1.000
    N1072    N        0.19455    0.21728    0.19035    1.000
    Si1073   Si       0.19651    0.05033    0.31776    1.000
    N1074    N        0.20651    0.05382    0.27608    1.000
    Si1075   Si       0.17350    0.12967    0.32713    1.000
    Si1076   Si       0.18648    0.02514    0.25206    1.000
    Si1077   Si       0.22198    0.10415    0.36251    1.000
    N1078    N        0.17006    0.08422    0.32309    1.000
    N1079    N        0.18252    0.00716    0.31833    1.000
    N1080    N        0.21511    0.13242    0.32940    1.000
    Si1081   Si       0.18600    0.24649    0.27101    1.000
    N1082    N        0.22535    0.23392    0.28776    1.000
    N1083    N        0.20383    0.01879    0.45321    1.000
    N1084    N        0.19421    0.08887    0.47095    1.000
    Si1085   Si       0.21278    0.11070    0.43875    1.000
    N1086    N        0.19701    0.10012    0.39850    1.000
    Si1087   Si       0.17602    0.04965    0.46374    1.000
    Si1088   Si       0.20956    0.00718    0.41186    1.000
    N1089    N        0.16851    0.01617    0.39396    1.000
    Si1090   Si       0.18368    0.18786    0.44845    1.000
    N1091    N        0.21008    0.15254    0.44700    1.000
    Si1092   Si       0.19716    0.24648    0.40177    1.000
    N1093    N        0.20775    0.20385    0.48396    1.000
    N1094    N        0.18841    0.20443    0.40821    1.000
    N1095    N        0.19757    0.25624    0.44477    1.000
    Si1096   Si       0.19751    0.09310    0.58372    1.000
    N1097    N        0.20839    0.07683    0.53787    1.000
    Si1098   Si       0.19103    0.10627    0.51126    1.000
    N1099    N        0.21712    0.01833    0.56098    1.000
    Si1100   Si       0.17712    0.04310    0.54552    1.000
    N1101    N        0.19416    0.13368    0.57339    1.000
    N1102    N        0.21645    0.14086    0.51313    1.000
    Si1103   Si       0.19457    0.20857    0.52547    1.000
    N1104    N        0.21608    0.23151    0.60822    1.000
    N1105    N        0.17893    0.25073    0.52867    1.000
    N1106    N        0.22661    0.19588    0.55196    1.000
    N1107    N        0.18089    0.09431    0.62929    1.000
    Si1108   Si       0.20151    0.06135    0.65133    1.000
    N1109    N        0.20044    0.12399    0.69205    1.000
    N1110    N        0.20627    0.02024    0.63820    1.000
    N1111    N        0.17233    0.05868    0.68390    1.000
    Si1112   Si       0.17488    0.09444    0.70969    1.000
    Si1113   Si       0.18239    0.13298    0.65262    1.000
    N1114    N        0.18609    0.09278    0.75052    1.000
    Si1115   Si       0.21048    0.21994    0.70767    1.000
    N1116    N        0.18073    0.22385    0.67441    1.000
    N1117    N        0.21147    0.18379    0.72957    1.000
    Si1118   Si       0.18957    0.21036    0.63529    1.000
    N1119    N        0.20468    0.16888    0.64010    1.000
    N1120    N        0.18955    0.24948    0.73118    1.000
    N1121    N        0.17899    0.01822    0.76431    1.000
    N1122    N        0.17366    0.02175    0.85823    1.000
    Si1123   Si       0.20536    0.05174    0.75451    1.000
    N1124    N        0.17659    0.12164    0.85726    1.000
    N1125    N        0.20084    0.23513    0.86532    1.000
    N1126    N        0.20516    0.14554    0.79638    1.000
    N1127    N        0.19866    0.21926    0.79289    1.000
    Si1128   Si       0.19463    0.17938    0.77179    1.000
    Si1129   Si       0.19225    0.15656    0.83507    1.000
    Si1130   Si       0.17531    0.22629    0.83088    1.000
    Si1131   Si       0.20984    0.25500    0.76859    1.000
    Si1132   Si       0.18101    0.11512    0.90094    1.000
    N1133    N        0.17979    0.07294    0.90985    1.000
    Si1134   Si       0.20106    0.04248    0.88604    1.000
    N1135    N        0.19460    0.05653    0.97109    1.000
    N1136    N        0.21209    0.01788    0.91885    1.000
    N1137    N        0.17845    0.13505    0.98119    1.000
    N1138    N        0.21314    0.13988    0.92121    1.000
    N1139    N        0.22103    0.19426    0.96902    1.000
    N1140    N        0.19902    0.25581    0.93569    1.000
    Si1141   Si       0.19524    0.16303    0.95291    1.000
    N1142    N        0.18956    0.36679    0.08902    1.000
    Si1143   Si       0.18893    0.31325    0.02731    1.000
    N1144    N        0.20355    0.35011    0.00807    1.000
    N1145    N        0.18358    0.27650    0.00183    1.000
    N1146    N        0.22037    0.29964    0.05303    1.000
    Si1147   Si       0.17848    0.38442    0.01172    1.000
    Si1148   Si       0.22167    0.36606    0.11655    1.000
    N1149    N        0.19501    0.47084    0.02955    1.000
    Si1150   Si       0.18953    0.40931    0.07903    1.000
    N1151    N        0.18293    0.42588    0.11867    1.000
    Si1152   Si       0.17262    0.29753    0.21768    1.000
    N1153    N        0.20443    0.34681    0.15171    1.000
    N1154    N        0.19996    0.27055    0.23566    1.000
    Si1155   Si       0.18909    0.30730    0.14289    1.000
    N1156    N        0.18188    0.34087    0.22242    1.000
    Si1157   Si       0.20581    0.36178    0.19229    1.000
    N1158    N        0.22317    0.28296    0.12923    1.000
    N1159    N        0.21704    0.50859    0.20512    1.000
    N1160    N        0.17840    0.39560    0.19780    1.000
    N1161    N        0.18046    0.46256    0.16986    1.000
    Si1162   Si       0.21395    0.44438    0.14618    1.000
    Si1163   Si       0.17947    0.50285    0.18488    1.000
    Si1164   Si       0.19820    0.32843    0.33204    1.000
    Si1165   Si       0.18922    0.35689    0.26505    1.000
    N1166    N        0.17886    0.32586    0.29220    1.000
    N1167    N        0.22437    0.36265    0.33654    1.000
    N1168    N        0.16655    0.32962    0.35922    1.000
    N1169    N        0.22531    0.29523    0.33088    1.000
    Si1170   Si       0.19120    0.46235    0.27213    1.000
    N1171    N        0.22075    0.48147    0.31378    1.000
    N1172    N        0.17474    0.50464    0.27315    1.000
    N1173    N        0.22244    0.42325    0.36845    1.000
    Si1174   Si       0.19816    0.34848    0.49046    1.000
    Si1175   Si       0.18846    0.35424    0.41873    1.000
    N1176    N        0.18157    0.37167    0.45920    1.000
    Si1177   Si       0.17239    0.28894    0.45988    1.000
    N1178    N        0.16637    0.26317    0.37627    1.000
    N1179    N        0.17096    0.31404    0.42411    1.000
    N1180    N        0.19565    0.30597    0.49184    1.000
    Si1181   Si       0.22018    0.46799    0.45054    1.000
    N1182    N        0.19559    0.43736    0.43036    1.000
    Si1183   Si       0.18634    0.42510    0.38974    1.000
    Si1184   Si       0.17206    0.41414    0.45770    1.000
    N1185    N        0.19551    0.49202    0.47751    1.000
    N1186    N        0.16890    0.38366    0.39358    1.000
    N1187    N        0.20288    0.29811    0.56731    1.000
    N1188    N        0.19446    0.36609    0.52954    1.000
    Si1189   Si       0.19161    0.34157    0.56550    1.000
    Si1190   Si       0.20815    0.28229    0.52676    1.000
    Si1191   Si       0.20037    0.27192    0.60440    1.000
    N1192    N        0.22430    0.35465    0.59084    1.000
    Si1193   Si       0.18419    0.44482    0.57723    1.000
    Si1194   Si       0.21234    0.40536    0.52393    1.000
    N1195    N        0.21560    0.41988    0.56465    1.000
    N1196    N        0.18181    0.47640    0.54625    1.000
    Si1197   Si       0.17349    0.46775    0.50546    1.000
    N1198    N        0.19178    0.46717    0.61704    1.000
    N1199    N        0.18703    0.42762    0.49775    1.000
    N1200    N        0.16678    0.33646    0.66795    1.000
    Si1201   Si       0.21742    0.37835    0.62710    1.000
    Si1202   Si       0.20721    0.31828    0.67183    1.000
    N1203    N        0.21487    0.28376    0.64447    1.000
    N1204    N        0.22082    0.31121    0.71201    1.000
    N1205    N        0.17997    0.40078    0.62731    1.000
    Si1206   Si       0.21068    0.43438    0.71953    1.000
    N1207    N        0.17076    0.42102    0.72929    1.000
    Si1208   Si       0.18036    0.43684    0.65127    1.000
    N1209    N        0.21565    0.43509    0.67822    1.000
    N1210    N        0.21717    0.47517    0.73389    1.000
    N1211    N        0.20128    0.29786    0.78058    1.000
    Si1212   Si       0.19235    0.34004    0.85929    1.000
    Si1213   Si       0.20511    0.32672    0.74842    1.000
    Si1214   Si       0.18873    0.49267    0.79703    1.000
    N1215    N        0.22385    0.46771    0.80573    1.000
    N1216    N        0.18374    0.38096    0.87119    1.000
    N1217    N        0.18432    0.30245    0.88162    1.000
    Si1218   Si       0.19273    0.29017    0.95984    1.000
    Si1219   Si       0.20737    0.26934    0.89367    1.000
    Si1220   Si       0.17077    0.43265    0.95211    1.000
    Si1221   Si       0.21688    0.39998    0.89393    1.000
    N1222    N        0.18967    0.47158    0.93669    1.000
    N1223    N        0.20210    0.40528    0.93332    1.000
    N1224    N        0.19748    0.42064    0.99263    1.000
    N1225    N        0.19030    0.59368    0.05305    1.000
    Si1226   Si       0.21411    0.57515    0.02032    1.000
    N1227    N        0.19773    0.51445    0.08508    1.000
    Si1228   Si       0.19271    0.51164    0.04117    1.000
    Si1229   Si       0.16702    0.52066    0.11444    1.000
    Si1230   Si       0.18023    0.63265    0.11684    1.000
    Si1231   Si       0.19512    0.63617    0.04853    1.000
    N1232    N        0.19333    0.71192    0.07956    1.000
    N1233    N        0.18693    0.65289    0.00927    1.000
    Si1234   Si       0.18901    0.75251    0.06429    1.000
    N1235    N        0.16802    0.65174    0.07888    1.000
    Si1236   Si       0.21732    0.54965    0.21838    1.000
    Si1237   Si       0.18946    0.61794    0.23641    1.000
    Si1238   Si       0.21467    0.56302    0.14676    1.000
    N1239    N        0.20863    0.60150    0.12861    1.000
    N1240    N        0.18319    0.57651    0.22763    1.000
    N1241    N        0.18191    0.53418    0.15304    1.000
    N1242    N        0.16895    0.75232    0.16566    1.000
    Si1243   Si       0.18512    0.74572    0.20630    1.000
    N1244    N        0.19309    0.70209    0.20359    1.000
    N1245    N        0.21148    0.66371    0.12561    1.000
    N1246    N        0.17828    0.61833    0.28170    1.000
    N1247    N        0.20917    0.61525    0.34602    1.000
    Si1248   Si       0.19393    0.51616    0.31005    1.000
    N1249    N        0.21801    0.55264    0.31174    1.000
    Si1250   Si       0.20082    0.64058    0.31184    1.000
    Si1251   Si       0.18425    0.71757    0.33667    1.000
    N1252    N        0.17973    0.67503    0.32873    1.000
    Si1253   Si       0.17297    0.72579    0.26995    1.000
    N1254    N        0.21645    0.73304    0.27082    1.000
    N1255    N        0.19191    0.56354    0.38134    1.000
    Si1256   Si       0.19513    0.58287    0.42063    1.000
    Si1257   Si       0.18795    0.53540    0.48147    1.000
    N1258    N        0.21185    0.55609    0.45255    1.000
    N1259    N        0.22296    0.61333    0.41279    1.000
    N1260    N        0.18551    0.69726    0.47213    1.000
    Si1261   Si       0.21161    0.64339    0.38150    1.000
    N1262    N        0.18224    0.66563    0.40673    1.000
    N1263    N        0.21647    0.72617    0.42172    1.000
    Si1264   Si       0.17770    0.70650    0.42776    1.000
    Si1265   Si       0.20178    0.57965    0.54562    1.000
    N1266    N        0.20023    0.54249    0.52361    1.000
    Si1267   Si       0.19837    0.51498    0.55736    1.000
    N1268    N        0.21584    0.61598    0.52695    1.000
    N1269    N        0.16959    0.52732    0.58708    1.000
    N1270    N        0.21771    0.68411    0.52163    1.000
    Si1271   Si       0.20542    0.65210    0.54789    1.000
    N1272    N        0.21223    0.65682    0.59053    1.000
    Si1273   Si       0.20462    0.73455    0.60988    1.000
    Si1274   Si       0.17840    0.66879    0.61651    1.000
    Si1275   Si       0.16946    0.69223    0.51246    1.000
    N1276    N        0.16919    0.70957    0.60443    1.000
    N1277    N        0.16558    0.72791    0.53646    1.000
    N1278    N        0.20356    0.54919    0.70401    1.000
    N1279    N        0.19175    0.58338    0.63957    1.000
    Si1280   Si       0.19312    0.54709    0.66257    1.000
    N1281    N        0.20489    0.62841    0.71028    1.000
    Si1282   Si       0.19466    0.51223    0.72763    1.000
    N1283    N        0.22321    0.52908    0.63671    1.000
    Si1284   Si       0.16642    0.63723    0.69013    1.000
    N1285    N        0.18589    0.65748    0.65699    1.000
    N1286    N        0.19755    0.75796    0.64794    1.000
    Si1287   Si       0.21674    0.74339    0.68397    1.000
    N1288    N        0.20448    0.70322    0.69569    1.000
    N1289    N        0.19459    0.58144    0.81960    1.000
    N1290    N        0.19307    0.52584    0.76884    1.000
    Si1291   Si       0.21331    0.55759    0.78688    1.000
    Si1292   Si       0.17863    0.55154    0.85180    1.000
    Si1293   Si       0.22045    0.59864    0.85103    1.000
    N1294    N        0.17704    0.51153    0.83408    1.000
    N1295    N        0.22439    0.58918    0.75920    1.000
    N1296    N        0.17385    0.63355    0.77090    1.000
    Si1297   Si       0.21248    0.63384    0.75585    1.000
    N1298    N        0.20085    0.63556    0.86412    1.000
    N1299    N        0.17994    0.68068    0.81562    1.000
    Si1300   Si       0.19022    0.74453    0.76202    1.000
    N1301    N        0.17144    0.70601    0.75368    1.000
    Si1302   Si       0.22063    0.69157    0.80595    1.000
    N1303    N        0.22194    0.73686    0.79294    1.000
    Si1304   Si       0.16634    0.65898    0.85099    1.000
    N1305    N        0.21331    0.56128    0.87608    1.000
    N1306    N        0.21907    0.61667    0.94966    1.000
    N1307    N        0.18023    0.57318    0.99192    1.000
    Si1308   Si       0.19039    0.58382    0.95147    1.000
    N1309    N        0.20386    0.54192    0.93820    1.000
    Si1310   Si       0.17276    0.50996    0.93488    1.000
    N1311    N        0.21049    0.68455    0.91465    1.000
    Si1312   Si       0.16945    0.73984    0.96637    1.000
    N1313    N        0.21294    0.73406    0.97125    1.000
    Si1314   Si       0.22211    0.64200    0.98589    1.000
    N1315    N        0.18508    0.77309    0.10281    1.000
    N1316    N        0.20776    0.83669    0.10207    1.000
    N1317    N        0.18130    0.82212    0.01401    1.000
    Si1318   Si       0.22426    0.81422    0.02031    1.000
    N1319    N        0.22092    0.77550    0.04121    1.000
    Si1320   Si       0.20875    0.88215    0.10656    1.000
    Si1321   Si       0.17168    0.81413    0.10286    1.000
    Si1322   Si       0.21550    0.89142    0.03150    1.000
    N1323    N        0.19056    0.89436    0.06858    1.000
    N1324    N        0.17289    0.00180    0.07727    1.000
    N1325    N        0.18649    0.89650    0.00078    1.000
    Si1326   Si       0.19214    0.85236    0.23111    1.000
    Si1327   Si       0.20246    0.76038    0.13940    1.000
    N1328    N        0.22393    0.76710    0.21378    1.000
    N1329    N        0.22330    0.79672    0.15317    1.000
    N1330    N        0.17195    0.97426    0.14156    1.000
    Si1331   Si       0.21385    0.98069    0.14269    1.000
    N1332    N        0.18789    0.89419    0.14055    1.000
    N1333    N        0.17329    0.92983    0.20447    1.000
    N1334    N        0.21632    0.99507    0.24459    1.000
    Si1335   Si       0.17725    0.92373    0.24770    1.000
    Si1336   Si       0.19285    0.82350    0.30241    1.000
    N1337    N        0.21122    0.86143    0.31348    1.000
    N1338    N        0.17560    0.83017    0.26322    1.000
    Si1339   Si       0.22055    0.86135    0.35445    1.000
    Si1340   Si       0.21828    0.89897    0.29016    1.000
    Si1341   Si       0.19423    0.96438    0.32304    1.000
    N1342    N        0.19483    0.93768    0.28738    1.000
    N1343    N        0.20647    0.88927    0.24979    1.000
    N1344    N        0.17203    0.84818    0.48775    1.000
    N1345    N        0.18515    0.84586    0.37537    1.000
    N1346    N        0.19087    0.78744    0.45732    1.000
    Si1347   Si       0.20023    0.81063    0.49169    1.000
    Si1348   Si       0.18384    0.88128    0.39917    1.000
    Si1349   Si       0.17067    0.88302    0.46105    1.000
    Si1350   Si       0.22262    0.76790    0.43609    1.000
    N1351    N        0.20698    0.87990    0.43799    1.000
    N1352    N        0.21501    0.89961    0.37355    1.000
    N1353    N        0.20360    0.96538    0.40758    1.000
    N1354    N        0.17174    0.91321    0.49043    1.000
    N1355    N        0.20562    0.77057    0.58637    1.000
    Si1356   Si       0.21126    0.79216    0.55037    1.000
    N1357    N        0.17443    0.80207    0.52860    1.000
    Si1358   Si       0.18502    0.79019    0.62124    1.000
    Si1359   Si       0.18002    0.89757    0.53018    1.000
    N1360    N        0.19687    0.91013    0.60991    1.000
    N1361    N        0.20922    0.97600    0.50853    1.000
    N1362    N        0.17818    0.93979    0.54941    1.000
    Si1363   Si       0.21088    0.97308    0.55159    1.000
    Si1364   Si       0.17187    0.95500    0.50802    1.000
    N1365    N        0.22007    0.88980    0.54242    1.000
    Si1366   Si       0.16494    0.93439    0.59185    1.000
    N1367    N        0.16789    0.97256    0.61147    1.000
    N1368    N        0.19111    0.82954    0.63727    1.000
    N1369    N        0.21063    0.76138    0.72530    1.000
    N1370    N        0.22088    0.82938    0.69958    1.000
    Si1371   Si       0.22732    0.80082    0.73125    1.000
    Si1372   Si       0.20653    0.93747    0.71373    1.000
    Si1373   Si       0.19787    0.91104    0.65360    1.000
    N1374    N        0.19509    0.89583    0.71387    1.000
    N1375    N        0.20980    0.95129    0.67058    1.000
    Si1376   Si       0.18752    0.98371    0.64979    1.000
    N1377    N        0.18785    0.95352    0.74949    1.000
    Si1378   Si       0.20777    0.83327    0.81417    1.000
    N1379    N        0.20977    0.81064    0.76872    1.000
    N1380    N        0.20913    0.79868    0.83928    1.000
    N1381    N        0.19584    0.85714    0.85307    1.000
    Si1382   Si       0.16708    0.80941    0.76748    1.000
    N1383    N        0.20383    0.96961    0.81926    1.000
    Si1384   Si       0.20564    0.98474    0.77719    1.000
    Si1385   Si       0.17434    0.97840    0.85435    1.000
    N1386    N        0.22038    0.91553    0.85559    1.000
    Si1387   Si       0.21076    0.82002    0.87740    1.000
    Si1388   Si       0.17802    0.85694    0.98691    1.000
    Si1389   Si       0.19184    0.80677    0.93511    1.000
    N1390    N        0.20344    0.84357    0.95626    1.000
    N1391    N        0.16904    0.82415    0.90098    1.000
    N1392    N        0.22161    0.78980    0.90842    1.000
    Si1393   Si       0.16935    0.93354    0.98820    1.000
    N1394    N        0.21603    0.90319    0.92370    1.000
    Si1395   Si       0.19422    0.91793    0.88971    1.000
    Si1396   Si       0.18307    0.98511    0.92798    1.000
    N1397    N        0.18311    0.95987    0.89245    1.000
    N1398    N        0.19204    0.95435    0.96088    1.000
    N1399    N        0.26587    0.09243    0.04097    1.000
    N1400    N        0.23419    0.05979    0.09230    1.000
    Si1401   Si       0.22795    0.08845    0.06171    1.000
    Si1402   Si       0.26009    0.03225    0.11854    1.000
    Si1403   Si       0.28414    0.11094    0.99927    1.000
    Si1404   Si       0.25460    0.00796    0.01263    1.000
    Si1405   Si       0.23629    0.15975    0.07335    1.000
    N1406    N        0.27609    0.20133    0.00940    1.000
    Si1407   Si       0.22957    0.23411    0.11449    1.000
    N1408    N        0.27937    0.16060    0.07214    1.000
    Si1409   Si       0.23296    0.19577    0.01041    1.000
    N1410    N        0.25785    0.25388    0.08431    1.000
    N1411    N        0.22478    0.19409    0.09648    1.000
    Si1412   Si       0.23969    0.26097    0.04218    1.000
    Si1413   Si       0.23256    0.09568    0.12274    1.000
    N1414    N        0.27223    0.11325    0.12728    1.000
    Si1415   Si       0.23197    0.05485    0.17960    1.000
    N1416    N        0.26606    0.05663    0.15427    1.000
    N1417    N        0.25163    0.06124    0.22103    1.000
    Si1418   Si       0.23766    0.21170    0.19073    1.000
    N1419    N        0.25591    0.23041    0.22571    1.000
    N1420    N        0.25073    0.23166    0.15488    1.000
    Si1421   Si       0.28039    0.15862    0.18213    1.000
    N1422    N        0.24154    0.16801    0.19664    1.000
    N1423    N        0.25542    0.10307    0.27916    1.000
    Si1424   Si       0.25937    0.03862    0.36177    1.000
    N1425    N        0.27781    0.01287    0.33247    1.000
    Si1426   Si       0.22958    0.08120    0.25126    1.000
    N1427    N        0.22790    0.06325    0.34673    1.000
    Si1428   Si       0.24457    0.14124    0.29700    1.000
    Si1429   Si       0.24726    0.20590    0.26362    1.000
    N1430    N        0.27779    0.15819    0.32048    1.000
    N1431    N        0.22979    0.16690    0.26331    1.000
    Si1432   Si       0.28213    0.15647    0.36430    1.000
    N1433    N        0.26103    0.12254    0.37655    1.000
    Si1434   Si       0.26962    0.06611    0.47071    1.000
    N1435    N        0.25167    0.08834    0.43843    1.000
    N1436    N        0.25008    0.01818    0.39832    1.000
    N1437    N        0.28084    0.10037    0.49697    1.000
    N1438    N        0.24916    0.03864    0.49770    1.000
    N1439    N        0.26907    0.19067    0.38706    1.000
    N1440    N        0.26343    0.22824    0.44681    1.000
    Si1441   Si       0.27178    0.22970    0.40365    1.000
    Si1442   Si       0.23176    0.16667    0.48250    1.000
    N1443    N        0.27529    0.16881    0.48003    1.000
    Si1444   Si       0.22929    0.24168    0.47160    1.000
    Si1445   Si       0.24357    0.04799    0.53938    1.000
    Si1446   Si       0.23143    0.02460    0.60293    1.000
    N1447    N        0.23043    0.06863    0.60297    1.000
    N1448    N        0.28184    0.06185    0.55621    1.000
    N1449    N        0.27288    0.00983    0.60134    1.000
    N1450    N        0.26937    0.13549    0.55789    1.000
    Si1451   Si       0.28301    0.25824    0.52497    1.000
    Si1452   Si       0.22854    0.15088    0.55467    1.000
    Si1453   Si       0.25053    0.21547    0.58597    1.000
    N1454    N        0.26880    0.18497    0.61393    1.000
    N1455    N        0.27424    0.24622    0.56727    1.000
    N1456    N        0.26098    0.12556    0.62708    1.000
    N1457    N        0.23958    0.04234    0.72811    1.000
    N1458    N        0.24093    0.06857    0.66746    1.000
    Si1459   Si       0.26435    0.04028    0.69308    1.000
    Si1460   Si       0.26063    0.08324    0.63148    1.000
    N1461    N        0.28189    0.25057    0.63698    1.000
    Si1462   Si       0.24678    0.16189    0.64332    1.000
    Si1463   Si       0.27437    0.23099    0.73201    1.000
    N1464    N        0.24675    0.23620    0.69499    1.000
    Si1465   Si       0.23013    0.14807    0.71386    1.000
    N1466    N        0.25777    0.16315    0.68591    1.000
    Si1467   Si       0.24925    0.06350    0.82599    1.000
    Si1468   Si       0.26520    0.03159    0.77035    1.000
    N1469    N        0.23819    0.05192    0.86589    1.000
    N1470    N        0.26094    0.10556    0.81956    1.000
    Si1471   Si       0.23135    0.11097    0.78475    1.000
    N1472    N        0.24648    0.13306    0.74977    1.000
    N1473    N        0.22870    0.06429    0.78881    1.000
    Si1474   Si       0.27371    0.25187    0.79832    1.000
    N1475    N        0.24981    0.24925    0.76129    1.000
    N1476    N        0.26674    0.23584    0.83828    1.000
    Si1477   Si       0.23840    0.21381    0.86412    1.000
    N1478    N        0.22744    0.17250    0.85387    1.000
    N1479    N        0.25551    0.02788    0.97297    1.000
    N1480    N        0.25475    0.07395    0.92547    1.000
    Si1481   Si       0.27217    0.05207    0.89295    1.000
    N1482    N        0.24671    0.11720    0.97982    1.000
    Si1483   Si       0.25946    0.11523    0.93763    1.000
    Si1484   Si       0.22815    0.04712    0.94703    1.000
    N1485    N        0.28307    0.01235    0.90798    1.000
    N1486    N        0.24878    0.20211    0.90573    1.000
    N1487    N        0.27171    0.24206    0.95214    1.000
    Si1488   Si       0.23135    0.22521    0.94234    1.000
    N1489    N        0.27518    0.13815    0.90198    1.000
    Si1490   Si       0.23947    0.15813    0.89440    1.000
    N1491    N        0.25154    0.33954    0.09882    1.000
    Si1492   Si       0.23922    0.29813    0.09183    1.000
    N1493    N        0.27541    0.33849    0.00990    1.000
    N1494    N        0.27470    0.26654    0.01610    1.000
    Si1495   Si       0.25747    0.43212    0.10005    1.000
    N1496    N        0.26148    0.47140    0.01655    1.000
    N1497    N        0.25657    0.41030    0.00609    1.000
    Si1498   Si       0.23183    0.44009    0.02449    1.000
    N1499    N        0.22915    0.42372    0.06625    1.000
    N1500    N        0.27336    0.50829    0.07511    1.000
    Si1501   Si       0.23839    0.50786    0.10166    1.000
    N1502    N        0.23762    0.46809    0.11877    1.000
    Si1503   Si       0.25849    0.27452    0.15495    1.000
    Si1504   Si       0.26331    0.37734    0.23820    1.000
    Si1505   Si       0.24259    0.27185    0.23053    1.000
    Si1506   Si       0.27427    0.33425    0.19660    1.000
    N1507    N        0.25431    0.29435    0.19471    1.000
    N1508    N        0.24821    0.37144    0.19749    1.000
    N1509    N        0.28381    0.49351    0.21130    1.000
    N1510    N        0.24479    0.40331    0.13196    1.000
    Si1511   Si       0.26180    0.40633    0.17241    1.000
    Si1512   Si       0.24270    0.47379    0.21559    1.000
    N1513    N        0.24126    0.44304    0.18393    1.000
    N1514    N        0.26288    0.28453    0.26825    1.000
    Si1515   Si       0.25411    0.28411    0.36222    1.000
    Si1516   Si       0.25298    0.37402    0.30458    1.000
    Si1517   Si       0.24507    0.26866    0.30367    1.000
    N1518    N        0.23086    0.36746    0.26601    1.000
    N1519    N        0.28252    0.34026    0.30915    1.000
    N1520    N        0.28285    0.37858    0.36626    1.000
    N1521    N        0.27502    0.25796    0.33358    1.000
    N1522    N        0.22968    0.45589    0.25152    1.000
    N1523    N        0.25364    0.41739    0.30710    1.000
    Si1524   Si       0.26540    0.43662    0.27088    1.000
    Si1525   Si       0.23826    0.44558    0.33559    1.000
    N1526    N        0.27035    0.47125    0.34846    1.000
    Si1527   Si       0.25436    0.50597    0.32739    1.000
    Si1528   Si       0.24240    0.38257    0.37155    1.000
    Si1529   Si       0.26312    0.35178    0.43379    1.000
    N1530    N        0.23182    0.36051    0.40771    1.000
    N1531    N        0.24341    0.35087    0.47424    1.000
    N1532    N        0.23767    0.25391    0.38835    1.000
    Si1533   Si       0.27960    0.46375    0.43461    1.000
    N1534    N        0.25359    0.44407    0.46239    1.000
    N1535    N        0.24522    0.49121    0.42243    1.000
    N1536    N        0.26072    0.33055    0.53870    1.000
    Si1537   Si       0.26885    0.36028    0.50922    1.000
    Si1538   Si       0.26440    0.34285    0.57975    1.000
    N1539    N        0.27583    0.31069    0.60464    1.000
    N1540    N        0.24145    0.26119    0.50945    1.000
    N1541    N        0.28562    0.38069    0.58183    1.000
    Si1542   Si       0.25622    0.41281    0.58260    1.000
    N1543    N        0.25531    0.40227    0.51679    1.000
    N1544    N        0.27558    0.45065    0.57824    1.000
    N1545    N        0.23855    0.50384    0.57643    1.000
    Si1546   Si       0.27540    0.49264    0.55755    1.000
    N1547    N        0.27914    0.47744    0.51594    1.000
    Si1548   Si       0.23097    0.49160    0.61845    1.000
    Si1549   Si       0.27670    0.43619    0.49834    1.000
    N1550    N        0.23277    0.34786    0.65276    1.000
    Si1551   Si       0.26997    0.32962    0.64441    1.000
    Si1552   Si       0.25105    0.26632    0.66165    1.000
    Si1553   Si       0.26472    0.32283    0.72101    1.000
    N1554    N        0.27468    0.30141    0.67689    1.000
    N1555    N        0.27687    0.36352    0.71561    1.000
    Si1556   Si       0.25565    0.43389    0.65902    1.000
    N1557    N        0.24736    0.40929    0.62531    1.000
    N1558    N        0.26027    0.47437    0.64450    1.000
    N1559    N        0.27126    0.29412    0.80701    1.000
    Si1560   Si       0.25529    0.37048    0.84517    1.000
    N1561    N        0.24226    0.34304    0.76359    1.000
    Si1562   Si       0.23802    0.31747    0.79900    1.000
    Si1563   Si       0.26239    0.38226    0.75237    1.000
    Si1564   Si       0.28180    0.26618    0.86831    1.000
    N1565    N        0.22694    0.34025    0.83316    1.000
    N1566    N        0.27888    0.48249    0.77157    1.000
    N1567    N        0.25147    0.41007    0.82619    1.000
    Si1568   Si       0.24290    0.46099    0.76513    1.000
    Si1569   Si       0.24245    0.44910    0.84055    1.000
    N1570    N        0.27911    0.47345    0.84320    1.000
    Si1571   Si       0.27369    0.50410    0.81058    1.000
    N1572    N        0.24024    0.41981    0.74898    1.000
    Si1573   Si       0.24006    0.34162    0.98501    1.000
    N1574    N        0.25252    0.37209    0.95787    1.000
    N1575    N        0.23427    0.30459    0.96192    1.000
    Si1576   Si       0.26635    0.28598    0.93565    1.000
    Si1577   Si       0.27466    0.36131    0.92095    1.000
    N1578    N        0.25076    0.27610    0.89534    1.000
    N1579    N        0.24962    0.37229    0.88856    1.000
    N1580    N        0.25024    0.44513    0.94665    1.000
    N1581    N        0.22771    0.43981    0.87996    1.000
    N1582    N        0.24950    0.50299    0.90648    1.000
    Si1583   Si       0.22931    0.46467    0.91576    1.000
    Si1584   Si       0.27860    0.46261    0.97659    1.000
    Si1585   Si       0.23277    0.40932    0.96740    1.000
    N1586    N        0.24072    0.61242    0.01532    1.000
    Si1587   Si       0.26292    0.62476    0.05405    1.000
    N1588    N        0.27207    0.58292    0.06718    1.000
    Si1589   Si       0.27603    0.57210    0.10979    1.000
    Si1590   Si       0.26235    0.51114    0.03157    1.000
    N1591    N        0.22629    0.53408    0.02562    1.000
    N1592    N        0.26460    0.70471    0.09585    1.000
    N1593    N        0.27326    0.74018    0.02579    1.000
    N1594    N        0.23152    0.65448    0.06257    1.000
    Si1595   Si       0.23829    0.75337    0.00190    1.000
    Si1596   Si       0.22535    0.68731    0.09113    1.000
    N1597    N        0.24503    0.54440    0.12225    1.000
    N1598    N        0.23291    0.57616    0.18431    1.000
    Si1599   Si       0.26918    0.57681    0.20715    1.000
    N1600    N        0.27857    0.61435    0.12687    1.000
    N1601    N        0.25204    0.55600    0.24215    1.000
    Si1602   Si       0.23894    0.63160    0.14176    1.000
    N1603    N        0.23019    0.63469    0.23914    1.000
    N1604    N        0.24791    0.65761    0.17729    1.000
    Si1605   Si       0.27286    0.65286    0.21195    1.000
    N1606    N        0.25807    0.71049    0.21127    1.000
    N1607    N        0.23137    0.72734    0.14813    1.000
    Si1608   Si       0.24526    0.74038    0.23913    1.000
    Si1609   Si       0.26572    0.73728    0.12445    1.000
    Si1610   Si       0.22770    0.69606    0.17895    1.000
    Si1611   Si       0.25011    0.56229    0.28381    1.000
    N1612    N        0.26969    0.59869    0.28839    1.000
    N1613    N        0.27210    0.59078    0.35590    1.000
    N1614    N        0.24557    0.53068    0.36388    1.000
    N1615    N        0.27690    0.53181    0.30133    1.000
    Si1616   Si       0.22667    0.57167    0.35151    1.000
    Si1617   Si       0.25652    0.63623    0.27081    1.000
    N1618    N        0.23912    0.65886    0.30330    1.000
    Si1619   Si       0.24819    0.69045    0.33314    1.000
    Si1620   Si       0.25054    0.75442    0.36686    1.000
    Si1621   Si       0.23913    0.75662    0.29953    1.000
    N1622    N        0.22721    0.72973    0.33801    1.000
    N1623    N        0.27581    0.75704    0.26970    1.000
    N1624    N        0.27381    0.55669    0.42029    1.000
    N1625    N        0.25673    0.60531    0.47122    1.000
    Si1626   Si       0.25314    0.56439    0.45811    1.000
    Si1627   Si       0.26695    0.51970    0.39777    1.000
    Si1628   Si       0.25550    0.63140    0.43595    1.000
    N1629    N        0.27864    0.54404    0.48782    1.000
    N1630    N        0.24576    0.67255    0.44329    1.000
    N1631    N        0.24266    0.67330    0.37314    1.000
    Si1632   Si       0.24937    0.69896    0.40861    1.000
    Si1633   Si       0.22929    0.69062    0.47855    1.000
    N1634    N        0.27587    0.73270    0.39622    1.000
    N1635    N        0.26395    0.71631    0.48979    1.000
    Si1636   Si       0.25543    0.61980    0.51141    1.000
    Si1637   Si       0.23108    0.57006    0.62188    1.000
    N1638    N        0.28261    0.59961    0.53699    1.000
    N1639    N        0.22268    0.57418    0.58200    1.000
    Si1640   Si       0.24676    0.66945    0.61345    1.000
    N1641    N        0.28098    0.65449    0.58842    1.000
    N1642    N        0.28296    0.65474    0.51069    1.000
    N1643    N        0.27155    0.57987    0.63488    1.000
    N1644    N        0.26627    0.59101    0.70463    1.000
    Si1645   Si       0.27324    0.60962    0.66571    1.000
    Si1646   Si       0.22498    0.58710    0.71599    1.000
    N1647    N        0.24038    0.71203    0.61633    1.000
    N1648    N        0.26535    0.66691    0.70617    1.000
    N1649    N        0.25853    0.74784    0.67454    1.000
    N1650    N        0.27450    0.72461    0.74206    1.000
    Si1651   Si       0.28259    0.75456    0.70997    1.000
    N1652    N        0.24875    0.64431    0.65057    1.000
    Si1653   Si       0.27322    0.73328    0.63666    1.000
    Si1654   Si       0.22429    0.66412    0.68511    1.000
    N1655    N        0.24879    0.53601    0.79920    1.000
    N1656    N        0.26163    0.59208    0.83781    1.000
    Si1657   Si       0.27825    0.56751    0.80763    1.000
    N1658    N        0.24410    0.68454    0.84459    1.000
    Si1659   Si       0.27488    0.71451    0.84707    1.000
    Si1660   Si       0.26628    0.74344    0.77965    1.000
    N1661    N        0.25363    0.74948    0.85763    1.000
    N1662    N        0.23386    0.66814    0.77142    1.000
    Si1663   Si       0.26935    0.68162    0.74720    1.000
    Si1664   Si       0.23526    0.54293    0.90852    1.000
    Si1665   Si       0.25612    0.61196    0.92827    1.000
    N1666    N        0.26519    0.57145    0.91786    1.000
    N1667    N        0.26297    0.72987    0.92211    1.000
    Si1668   Si       0.23222    0.70574    0.94580    1.000
    N1669    N        0.26212    0.63473    0.88928    1.000
    N1670    N        0.24640    0.67657    0.97741    1.000
    Si1671   Si       0.22945    0.66155    0.87902    1.000
    N1672    N        0.23751    0.85405    0.02704    1.000
    Si1673   Si       0.26123    0.77062    0.05764    1.000
    N1674    N        0.25705    0.77259    0.10191    1.000
    Si1675   Si       0.24150    0.81105    0.11658    1.000
    Si1676   Si       0.27991    0.84989    0.03733    1.000
    N1677    N        0.28110    0.83569    0.11652    1.000
    N1678    N        0.28321    0.81004    0.05406    1.000
    Si1679   Si       0.27304    0.92899    0.00351    1.000
    N1680    N        0.24908    0.89396    0.10442    1.000
    Si1681   Si       0.27243    0.91425    0.07312    1.000
    N1682    N        0.24622    0.92169    0.03844    1.000
    N1683    N        0.23379    0.99823    0.10869    1.000
    Si1684   Si       0.26690    0.85540    0.20482    1.000
    Si1685   Si       0.23833    0.80048    0.19317    1.000
    Si1686   Si       0.27816    0.87768    0.13153    1.000
    N1687    N        0.28047    0.81473    0.19095    1.000
    N1688    N        0.22882    0.83757    0.21405    1.000
    N1689    N        0.26693    0.93614    0.22511    1.000
    Si1690   Si       0.25656    0.97850    0.23994    1.000
    N1691    N        0.23607    0.95071    0.16087    1.000
    N1692    N        0.27024    0.88712    0.17519    1.000
    Si1693   Si       0.26735    0.93096    0.18238    1.000
    Si1694   Si       0.26357    0.81326    0.32220    1.000
    N1695    N        0.25298    0.83461    0.35750    1.000
    N1696    N        0.27415    0.77349    0.33584    1.000
    N1697    N        0.22641    0.79796    0.30280    1.000
    N1698    N        0.28075    0.97611    0.27861    1.000
    N1699    N        0.23201    0.96178    0.34192    1.000
    N1700    N        0.26215    0.90672    0.29335    1.000
    Si1701   Si       0.26853    0.97298    0.32028    1.000
    Si1702   Si       0.28437    0.90987    0.25654    1.000
    N1703    N        0.26092    0.77065    0.45411    1.000
    N1704    N        0.23548    0.78444    0.39623    1.000
    Si1705   Si       0.24433    0.86529    0.45539    1.000
    Si1706   Si       0.26225    0.81727    0.39523    1.000
    N1707    N        0.26927    0.84411    0.42715    1.000
    N1708    N        0.23511    0.84061    0.49184    1.000
    Si1709   Si       0.26483    0.75848    0.49492    1.000
    N1710    N        0.26423    0.97415    0.46711    1.000
    N1711    N        0.26464    0.90142    0.46950    1.000
    N1712    N        0.26746    0.94249    0.40183    1.000
    Si1713   Si       0.23071    0.93929    0.38026    1.000
    Si1714   Si       0.23288    0.00052    0.48074    1.000
    Si1715   Si       0.27200    0.93638    0.44521    1.000
    Si1716   Si       0.24495    0.85658    0.52956    1.000
    Si1717   Si       0.26149    0.84363    0.59226    1.000
    N1718    N        0.23990    0.82502    0.55991    1.000
    N1719    N        0.23177    0.77776    0.51433    1.000
    N1720    N        0.26007    0.88751    0.59644    1.000
    N1721    N        0.23983    0.95353    0.57695    1.000
    Si1722   Si       0.27298    0.96425    0.60288    1.000
    Si1723   Si       0.22873    0.91177    0.58058    1.000
    N1724    N        0.25824    0.82648    0.63227    1.000
    N1725    N        0.27006    0.79390    0.72679    1.000
    N1726    N        0.25887    0.86628    0.74154    1.000
    Si1727   Si       0.22952    0.87172    0.71051    1.000
    Si1728   Si       0.22580    0.83864    0.65802    1.000
    Si1729   Si       0.25535    0.95969    0.67708    1.000
    N1730    N        0.23252    0.88185    0.66342    1.000
    N1731    N        0.27782    0.99808    0.68126    1.000
    N1732    N        0.27171    0.94014    0.63989    1.000
    Si1733   Si       0.26611    0.89616    0.63929    1.000
    N1734    N        0.24942    0.94247    0.71933    1.000
    N1735    N        0.26931    0.78073    0.80165    1.000
    N1736    N        0.24344    0.85993    0.80938    1.000
    Si1737   Si       0.23489    0.76797    0.82524    1.000
    Si1738   Si       0.24172    0.87721    0.85144    1.000
    Si1739   Si       0.27134    0.88302    0.78318    1.000
    N1740    N        0.24757    0.98923    0.76991    1.000
    N1741    N        0.26796    0.96252    0.85227    1.000
    Si1742   Si       0.23806    0.94540    0.82742    1.000
    N1743    N        0.25260    0.92536    0.78994    1.000
    Si1744   Si       0.26720    0.95165    0.75702    1.000
    N1745    N        0.24981    0.84303    0.87714    1.000
    N1746    N        0.26924    0.84540    0.93991    1.000
    Si1747   Si       0.23494    0.87277    0.94811    1.000
    Si1748   Si       0.25616    0.76556    0.89862    1.000
    N1749    N        0.24928    0.79515    0.98919    1.000
    Si1750   Si       0.28226    0.81948    0.97201    1.000
    N1751    N        0.25611    0.95942    0.92779    1.000
    Si1752   Si       0.27861    0.97056    0.89418    1.000
    Si1753   Si       0.22949    0.93436    0.95138    1.000
    Si1754   Si       0.27412    0.99093    0.95489    1.000
    N1755    N        0.25124    0.90495    0.97502    1.000
    N1756    N        0.25986    0.96916    0.99317    1.000
    Si1757   Si       0.29754    0.06193    0.03926    1.000
    N1758    N        0.33413    0.12898    0.09889    1.000
    N1759    N        0.33751    0.07095    0.05843    1.000
    N1760    N        0.29986    0.01473    0.11022    1.000
    N1761    N        0.30625    0.07151    0.99716    1.000
    N1762    N        0.28450    0.02120    0.04203    1.000
    N1763    N        0.31383    0.14039    0.01053    1.000
    Si1764   Si       0.29963    0.17385    0.03500    1.000
    Si1765   Si       0.29615    0.14544    0.10955    1.000
    N1766    N        0.33134    0.20025    0.04173    1.000
    N1767    N        0.33311    0.24846    0.09469    1.000
    N1768    N        0.29613    0.11946    0.19284    1.000
    N1769    N        0.33654    0.08616    0.15128    1.000
    Si1770   Si       0.32758    0.10786    0.22036    1.000
    N1771    N        0.32636    0.06377    0.21296    1.000
    Si1772   Si       0.29255    0.09008    0.16009    1.000
    Si1773   Si       0.29286    0.04423    0.23190    1.000
    N1774    N        0.33916    0.01271    0.17076    1.000
    N1775    N        0.30049    0.17017    0.14329    1.000
    N1776    N        0.33547    0.24600    0.23106    1.000
    Si1777   Si       0.30146    0.21778    0.22996    1.000
    Si1778   Si       0.33531    0.18325    0.16453    1.000
    N1779    N        0.31048    0.18691    0.20169    1.000
    N1780    N        0.31945    0.09868    0.32424    1.000
    N1781    N        0.32136    0.11335    0.26283    1.000
    Si1782   Si       0.32982    0.07319    0.35837    1.000
    Si1783   Si       0.29504    0.08972    0.28828    1.000
    N1784    N        0.30107    0.04929    0.27507    1.000
    Si1785   Si       0.31195    0.02133    0.30656    1.000
    Si1786   Si       0.30914    0.18417    0.30315    1.000
    N1787    N        0.31961    0.20747    0.33685    1.000
    Si1788   Si       0.31474    0.24852    0.34698    1.000
    N1789    N        0.28981    0.20171    0.26942    1.000
    N1790    N        0.29969    0.04360    0.44825    1.000
    N1791    N        0.30777    0.11946    0.42977    1.000
    N1792    N        0.29299    0.06117    0.38088    1.000
    Si1793   Si       0.33527    0.03433    0.46950    1.000
    Si1794   Si       0.29150    0.02377    0.41057    1.000
    Si1795   Si       0.29869    0.13167    0.47022    1.000
    Si1796   Si       0.28056    0.09630    0.40617    1.000
    N1797    N        0.32861    0.19893    0.44334    1.000
    N1798    N        0.33958    0.13957    0.48417    1.000
    N1799    N        0.30970    0.24980    0.39361    1.000
    Si1800   Si       0.29433    0.20688    0.46946    1.000
    N1801    N        0.32429    0.15450    0.37496    1.000
    Si1802   Si       0.34338    0.22539    0.41149    1.000
    Si1803   Si       0.30208    0.04149    0.58966    1.000
    N1804    N        0.33079    0.11513    0.54342    1.000
    Si1805   Si       0.29075    0.10231    0.53944    1.000
    N1806    N        0.30101    0.07086    0.62326    1.000
    N1807    N        0.33180    0.14313    0.60473    1.000
    N1808    N        0.33261    0.20721    0.61461    1.000
    N1809    N        0.30711    0.22970    0.50279    1.000
    Si1810   Si       0.28930    0.14575    0.59782    1.000
    Si1811   Si       0.34154    0.24931    0.52004    1.000
    N1812    N        0.30500    0.06008    0.69600    1.000
    Si1813   Si       0.32591    0.06564    0.65794    1.000
    Si1814   Si       0.31549    0.06078    0.73837    1.000
    N1815    N        0.33913    0.02469    0.64544    1.000
    N1816    N        0.31334    0.13378    0.71585    1.000
    N1817    N        0.30153    0.02197    0.74925    1.000
    N1818    N        0.31617    0.18324    0.66607    1.000
    Si1819   Si       0.29716    0.21034    0.63887    1.000
    N1820    N        0.29007    0.19088    0.74283    1.000
    N1821    N        0.30877    0.24257    0.70890    1.000
    Si1822   Si       0.29600    0.17166    0.70261    1.000
    Si1823   Si       0.30057    0.09627    0.80320    1.000
    Si1824   Si       0.32065    0.04258    0.83528    1.000
    N1825    N        0.28892    0.08588    0.76162    1.000
    N1826    N        0.33702    0.07331    0.81000    1.000
    N1827    N        0.30689    0.06665    0.87007    1.000
    Si1828   Si       0.29029    0.13065    0.75481    1.000
    N1829    N        0.28157    0.03899    0.81356    1.000
    N1830    N        0.31411    0.13612    0.79118    1.000
    N1831    N        0.31040    0.24222    0.77730    1.000
    Si1832   Si       0.32881    0.20361    0.76030    1.000
    N1833    N        0.30484    0.11721    0.95102    1.000
    Si1834   Si       0.33066    0.08458    0.96451    1.000
    N1835    N        0.33205    0.05949    0.93058    1.000
    Si1836   Si       0.29171    0.23554    0.99103    1.000
    Si1837   Si       0.31602    0.14276    0.91742    1.000
    N1838    N        0.33411    0.23844    0.98037    1.000
    Si1839   Si       0.28784    0.21516    0.92015    1.000
    N1840    N        0.31701    0.18509    0.93376    1.000
    N1841    N        0.30824    0.23885    0.88917    1.000
    Si1842   Si       0.29870    0.30355    0.02258    1.000
    N1843    N        0.32482    0.34502    0.11007    1.000
    Si1844   Si       0.29749    0.27181    0.09292    1.000
    N1845    N        0.29675    0.30528    0.06559    1.000
    Si1846   Si       0.29142    0.34392    0.08163    1.000
    Si1847   Si       0.28950    0.37999    0.01301    1.000
    N1848    N        0.33807    0.30425    0.00442    1.000
    N1849    N        0.29695    0.38062    0.05672    1.000
    N1850    N        0.33087    0.37741    0.99913    1.000
    Si1851   Si       0.32366    0.41066    0.07254    1.000
    N1852    N        0.30115    0.43332    0.10199    1.000
    Si1853   Si       0.32043    0.31736    0.14167    1.000
    N1854    N        0.30805    0.34381    0.17271    1.000
    N1855    N        0.29025    0.28873    0.13135    1.000
    N1856    N        0.28760    0.34212    0.23964    1.000
    Si1857   Si       0.33334    0.38004    0.17709    1.000
    N1858    N        0.30386    0.49021    0.14355    1.000
    N1859    N        0.33961    0.45865    0.22292    1.000
    Si1860   Si       0.33113    0.41948    0.24097    1.000
    N1861    N        0.30570    0.41293    0.16676    1.000
    Si1862   Si       0.31960    0.44712    0.14215    1.000
    Si1863   Si       0.31360    0.48706    0.24265    1.000
    N1864    N        0.28778    0.41183    0.24449    1.000
    Si1865   Si       0.30091    0.34364    0.34689    1.000
    N1866    N        0.33091    0.30068    0.27786    1.000
    Si1867   Si       0.29122    0.31768    0.27412    1.000
    Si1868   Si       0.32736    0.45333    0.30461    1.000
    N1869    N        0.29631    0.46579    0.27581    1.000
    N1870    N        0.32968    0.43472    0.34386    1.000
    N1871    N        0.33216    0.49199    0.32470    1.000
    Si1872   Si       0.31115    0.46852    0.36604    1.000
    N1873    N        0.28834    0.31064    0.37095    1.000
    Si1874   Si       0.31202    0.29672    0.40461    1.000
    N1875    N        0.29520    0.38045    0.43447    1.000
    Si1876   Si       0.32322    0.38394    0.46798    1.000
    N1877    N        0.28668    0.31396    0.43628    1.000
    Si1878   Si       0.30692    0.39762    0.39672    1.000
    N1879    N        0.30990    0.50377    0.39461    1.000
    Si1880   Si       0.30211    0.50697    0.49423    1.000
    N1881    N        0.29818    0.44142    0.40326    1.000
    Si1882   Si       0.33861    0.50490    0.42879    1.000
    N1883    N        0.31797    0.42141    0.48948    1.000
    N1884    N        0.30816    0.48647    0.45636    1.000
    N1885    N        0.31829    0.28616    0.52521    1.000
    Si1886   Si       0.33100    0.32843    0.52772    1.000
    N1887    N        0.33527    0.27241    0.59566    1.000
    Si1888   Si       0.29153    0.26952    0.59937    1.000
    N1889    N        0.33841    0.33728    0.56963    1.000
    N1890    N        0.31220    0.35789    0.50123    1.000
    Si1891   Si       0.33033    0.37914    0.58122    1.000
    Si1892   Si       0.31889    0.44641    0.58031    1.000
    N1893    N        0.32938    0.48388    0.56228    1.000
    N1894    N        0.33888    0.41490    0.55843    1.000
    N1895    N        0.32711    0.45152    0.62239    1.000
    N1896    N        0.30224    0.35665    0.65094    1.000
    Si1897   Si       0.30784    0.28409    0.69626    1.000
    N1898    N        0.29871    0.30004    0.73628    1.000
    Si1899   Si       0.30346    0.38115    0.68525    1.000
    N1900    N        0.32603    0.49271    0.67339    1.000
    Si1901   Si       0.30173    0.48407    0.63690    1.000
    N1902    N        0.29277    0.42480    0.67767    1.000
    Si1903   Si       0.32700    0.45099    0.68594    1.000
    N1904    N        0.32283    0.45692    0.72902    1.000
    Si1905   Si       0.30446    0.31729    0.82282    1.000
    N1906    N        0.31030    0.29878    0.86099    1.000
    Si1907   Si       0.32733    0.27999    0.76380    1.000
    N1908    N        0.29323    0.35822    0.82910    1.000
    N1909    N        0.33806    0.31035    0.79485    1.000
    N1910    N        0.29958    0.39418    0.77186    1.000
    Si1911   Si       0.31869    0.39456    0.81411    1.000
    Si1912   Si       0.31602    0.45658    0.86042    1.000
    N1913    N        0.31979    0.41261    0.85633    1.000
    Si1914   Si       0.32707    0.42349    0.75719    1.000
    N1915    N        0.34065    0.43361    0.79914    1.000
    Si1916   Si       0.31627    0.49355    0.75010    1.000
    Si1917   Si       0.32455    0.31734    0.89685    1.000
    N1918    N        0.29089    0.31906    0.92696    1.000
    N1919    N        0.30834    0.38837    0.92210    1.000
    Si1920   Si       0.33858    0.39153    0.88945    1.000
    Si1921   Si       0.29227    0.49614    0.91507    1.000
    N1922    N        0.29623    0.49674    0.95757    1.000
    Si1923   Si       0.32371    0.42951    0.93218    1.000
    N1924    N        0.30825    0.45820    0.90305    1.000
    N1925    N        0.31117    0.43310    0.97223    1.000
    N1926    N        0.31015    0.60562    0.01581    1.000
    Si1927   Si       0.30297    0.56882    0.04039    1.000
    N1928    N        0.29328    0.53523    0.01512    1.000
    N1929    N        0.31328    0.55200    0.11356    1.000
    Si1930   Si       0.31955    0.62811    0.11512    1.000
    Si1931   Si       0.30905    0.50973    0.10395    1.000
    Si1932   Si       0.32344    0.64307    0.03342    1.000
    N1933    N        0.29882    0.64706    0.06936    1.000
    Si1934   Si       0.30936    0.71603    0.02574    1.000
    Si1935   Si       0.30295    0.68615    0.08918    1.000
    N1936    N        0.32663    0.71317    0.06499    1.000
    N1937    N        0.30845    0.67549    0.00977    1.000
    N1938    N        0.33975    0.73756    0.00059    1.000
    N1939    N        0.30031    0.55625    0.18359    1.000
    Si1940   Si       0.32514    0.59207    0.18651    1.000
    N1941    N        0.29251    0.61289    0.20690    1.000
    Si1942   Si       0.30751    0.51376    0.18041    1.000
    Si1943   Si       0.33452    0.76023    0.13812    1.000
    N1944    N        0.30007    0.73711    0.15107    1.000
    Si1945   Si       0.34048    0.66404    0.16752    1.000
    N1946    N        0.32213    0.67014    0.12651    1.000
    N1947    N        0.31291    0.75187    0.21530    1.000
    Si1948   Si       0.29554    0.71897    0.19163    1.000
    Si1949   Si       0.33102    0.67044    0.23641    1.000
    N1950    N        0.31181    0.67888    0.19751    1.000
    Si1951   Si       0.31985    0.52712    0.30211    1.000
    Si1952   Si       0.29908    0.59799    0.32052    1.000
    N1953    N        0.32877    0.56829    0.31926    1.000
    N1954    N        0.33247    0.52084    0.26185    1.000
    N1955    N        0.31500    0.63901    0.31738    1.000
    Si1956   Si       0.30377    0.74650    0.32118    1.000
    Si1957   Si       0.30812    0.67681    0.29409    1.000
    N1958    N        0.33056    0.74486    0.35721    1.000
    N1959    N        0.28910    0.66046    0.25535    1.000
    N1960    N        0.34130    0.69575    0.26903    1.000
    N1961    N        0.28803    0.70558    0.31792    1.000
    N1962    N        0.33573    0.75606    0.29431    1.000
    N1963    N        0.33302    0.57941    0.38429    1.000
    N1964    N        0.29108    0.62539    0.41423    1.000
    Si1965   Si       0.29235    0.58784    0.39442    1.000
    Si1966   Si       0.29933    0.68851    0.48871    1.000
    N1967    N        0.33225    0.66673    0.38250    1.000
    N1968    N        0.32228    0.68090    0.45059    1.000
    N1969    N        0.32671    0.75030    0.44974    1.000
    Si1970   Si       0.32632    0.64960    0.42072    1.000
    Si1971   Si       0.30108    0.56455    0.52054    1.000
    Si1972   Si       0.32746    0.52664    0.57804    1.000
    N1973    N        0.29436    0.53325    0.55130    1.000
    N1974    N        0.30560    0.51979    0.61512    1.000
    N1975    N        0.33625    0.56983    0.59352    1.000
    N1976    N        0.33956    0.58121    0.50566    1.000
    N1977    N        0.34141    0.51791    0.50614    1.000
    N1978    N        0.34083    0.63264    0.55539    1.000
    Si1979   Si       0.29843    0.63458    0.55318    1.000
    N1980    N        0.33495    0.70413    0.51139    1.000
    N1981    N        0.31203    0.71659    0.58044    1.000
    Si1982   Si       0.32102    0.73452    0.54112    1.000
    Si1983   Si       0.31015    0.68176    0.60537    1.000
    Si1984   Si       0.33509    0.74703    0.60348    1.000
    N1985    N        0.33153    0.56135    0.66365    1.000
    N1986    N        0.31265    0.62867    0.66684    1.000
    Si1987   Si       0.29788    0.57714    0.73310    1.000
    Si1988   Si       0.31054    0.56224    0.62666    1.000
    Si1989   Si       0.33813    0.52855    0.69269    1.000
    N1990    N        0.33848    0.59237    0.72043    1.000
    N1991    N        0.31191    0.53114    0.72901    1.000
    N1992    N        0.32389    0.75486    0.69620    1.000
    Si1993   Si       0.29964    0.66931    0.67759    1.000
    N1994    N        0.29575    0.69722    0.64411    1.000
    N1995    N        0.33043    0.68347    0.70218    1.000
    N1996    N        0.30387    0.53676    0.82304    1.000
    N1997    N        0.29742    0.59007    0.77609    1.000
    Si1998   Si       0.29101    0.61405    0.86194    1.000
    Si1999   Si       0.33342    0.52613    0.85339    1.000
    Si2000   Si       0.31693    0.62616    0.79163    1.000
    N2001    N        0.31216    0.63764    0.83424    1.000
    N2002    N        0.30261    0.66264    0.77076    1.000
    Si2003   Si       0.32226    0.69738    0.78800    1.000
    Si2004   Si       0.33127    0.67050    0.85646    1.000
    N2005    N        0.28816    0.71675    0.80604    1.000
    N2006    N        0.31673    0.52567    0.89296    1.000
    Si2007   Si       0.31661    0.60304    0.97251    1.000
    N2008    N        0.32386    0.59248    0.88668    1.000
    Si2009   Si       0.32020    0.52544    0.98137    1.000
    Si2010   Si       0.30941    0.56186    0.91435    1.000
    N2011    N        0.32257    0.56176    0.95665    1.000
    N2012    N        0.28467    0.62494    0.95586    1.000
    Si2013   Si       0.28800    0.66611    0.97418    1.000
    N2014    N        0.31036    0.68233    0.94163    1.000
    N2015    N        0.30558    0.70249    0.87336    1.000
    Si2016   Si       0.30378    0.71486    0.91418    1.000
    N2017    N        0.33413    0.74276    0.92585    1.000
    Si2018   Si       0.31033    0.81648    0.08826    1.000
    N2019    N        0.32870    0.77846    0.09637    1.000
    N2020    N        0.30142    0.84628    0.00046    1.000
    N2021    N        0.34189    0.84542    0.08048    1.000
    N2022    N        0.29846    0.88649    0.05497    1.000
    Si2023   Si       0.29749    0.99258    0.07194    1.000
    N2024    N        0.31723    0.93116    0.00865    1.000
    Si2025   Si       0.33415    0.90148    0.03547    1.000
    N2026    N        0.28713    0.95301    0.07906    1.000
    N2027    N        0.34134    0.99116    0.06619    1.000
    Si2028   Si       0.31581    0.79274    0.19892    1.000
    N2029    N        0.33114    0.80815    0.23806    1.000
    N2030    N        0.28960    0.86964    0.23986    1.000
    N2031    N        0.34493    0.78851    0.16711    1.000
    N2032    N        0.28745    0.00156    0.21994    1.000
    N2033    N        0.30476    0.95215    0.17173    1.000
    Si2034   Si       0.33857    0.00501    0.12932    1.000
    Si2035   Si       0.31947    0.98449    0.19613    1.000
    Si2036   Si       0.33116    0.93447    0.14361    1.000
    N2037    N        0.31289    0.90088    0.12253    1.000
    Si2038   Si       0.31323    0.84195    0.26154    1.000
    N2039    N        0.29500    0.83104    0.29967    1.000
    Si2040   Si       0.33138    0.84781    0.32248    1.000
    Si2041   Si       0.31541    0.76651    0.25704    1.000
    N2042    N        0.31018    0.88104    0.34143    1.000
    N2043    N        0.32026    0.92593    0.27697    1.000
    N2044    N        0.29796    0.94849    0.34086    1.000
    Si2045   Si       0.32151    0.96723    0.26571    1.000
    Si2046   Si       0.29987    0.91361    0.31586    1.000
    N2047    N        0.34259    0.99294    0.29378    1.000
    Si2048   Si       0.32881    0.78380    0.37135    1.000
    Si2049   Si       0.32855    0.77835    0.48399    1.000
    N2050    N        0.32624    0.81795    0.46541    1.000
    Si2051   Si       0.31180    0.83111    0.42817    1.000
    N2052    N        0.30029    0.79729    0.39950    1.000
    Si2053   Si       0.29276    0.76177    0.42478    1.000
    N2054    N        0.33169    0.88209    0.47956    1.000
    Si2055   Si       0.33608    0.88300    0.37638    1.000
    N2056    N        0.33778    0.92253    0.39608    1.000
    Si2057   Si       0.33867    0.90347    0.44225    1.000
    N2058    N        0.31426    0.93988    0.45395    1.000
    Si2059   Si       0.30746    0.95223    0.38485    1.000
    N2060    N        0.33208    0.99719    0.49140    1.000
    Si2061   Si       0.30188    0.96774    0.48814    1.000
    N2062    N        0.31899    0.99418    0.39257    1.000
    Si2063   Si       0.32116    0.85650    0.55646    1.000
    N2064    N        0.30493    0.83453    0.58940    1.000
    N2065    N        0.30333    0.76472    0.51573    1.000
    N2066    N        0.28694    0.86946    0.52978    1.000
    Si2067   Si       0.32679    0.93468    0.55469    1.000
    N2068    N        0.31233    0.94509    0.59241    1.000
    N2069    N        0.30182    0.93595    0.51994    1.000
    Si2070   Si       0.29659    0.89880    0.49927    1.000
    N2071    N        0.29855    0.76619    0.62230    1.000
    Si2072   Si       0.29781    0.80931    0.62552    1.000
    Si2073   Si       0.33028    0.85368    0.66932    1.000
    N2074    N        0.31987    0.85271    0.71229    1.000
    N2075    N        0.32846    0.81332    0.65444    1.000
    Si2076   Si       0.28666    0.83322    0.73362    1.000
    Si2077   Si       0.32256    0.99694    0.67653    1.000
    Si2078   Si       0.33002    0.99006    0.74723    1.000
    N2079    N        0.33306    0.96013    0.65790    1.000
    N2080    N        0.31032    0.88730    0.64781    1.000
    Si2081   Si       0.32139    0.92595    0.63386    1.000
    N2082    N        0.31762    0.82793    0.83808    1.000
    Si2083   Si       0.31590    0.86876    0.85618    1.000
    N2084    N        0.30844    0.82586    0.76914    1.000
    Si2085   Si       0.30639    0.80206    0.80409    1.000
    Si2086   Si       0.33811    0.85560    0.75311    1.000
    N2087    N        0.34320    0.77751    0.80754    1.000
    N2088    N        0.31537    0.88711    0.77681    1.000
    N2089    N        0.31310    0.94778    0.75130    1.000
    Si2090   Si       0.30297    0.93642    0.84936    1.000
    N2091    N        0.33084    0.94598    0.81834    1.000
    Si2092   Si       0.33410    0.92470    0.78070    1.000
    N2093    N        0.28434    0.89598    0.84748    1.000
    N2094    N        0.29219    0.79061    0.90042    1.000
    Si2095   Si       0.32981    0.78546    0.92384    1.000
    N2096    N        0.31947    0.85761    0.89832    1.000
    N2097    N        0.32243    0.80279    0.96216    1.000
    Si2098   Si       0.28378    0.83184    0.90216    1.000
    Si2099   Si       0.34127    0.83545    0.99199    1.000
    Si2100   Si       0.33797    0.95693    0.98037    1.000
    N2101    N        0.31637    0.94771    0.89150    1.000
    N2102    N        0.31616    0.99225    0.96267    1.000
    N2103    N        0.38824    0.10120    0.10261    1.000
    Si2104   Si       0.35943    0.03444    0.06843    1.000
    N2105    N        0.36736    0.03082    0.11078    1.000
    Si2106   Si       0.35781    0.10743    0.07102    1.000
    N2107    N        0.39450    0.03158    0.04472    1.000
    Si2108   Si       0.35662    0.14065    0.99973    1.000
    N2109    N        0.37380    0.13549    0.04199    1.000
    Si2110   Si       0.39623    0.17089    0.05518    1.000
    Si2111   Si       0.35460    0.22961    0.06233    1.000
    N2112    N        0.38271    0.20188    0.08263    1.000
    N2113    N        0.37958    0.25457    0.03495    1.000
    Si2114   Si       0.40718    0.12748    0.21980    1.000
    N2115    N        0.39400    0.06034    0.17234    1.000
    Si2116   Si       0.35981    0.11880    0.13368    1.000
    Si2117   Si       0.35129    0.05573    0.17893    1.000
    Si2118   Si       0.40077    0.03615    0.13738    1.000
    N2119    N        0.36489    0.12426    0.21000    1.000
    Si2120   Si       0.35218    0.25334    0.13283    1.000
    Si2121   Si       0.36656    0.22673    0.20552    1.000
    N2122    N        0.39738    0.25513    0.12176    1.000
    N2123    N        0.39656    0.19481    0.20087    1.000
    N2124    N        0.34963    0.22384    0.16550    1.000
    N2125    N        0.36805    0.15816    0.14997    1.000
    N2126    N        0.38842    0.10896    0.30080    1.000
    Si2127   Si       0.37539    0.01449    0.31254    1.000
    N2128    N        0.39847    0.03831    0.28272    1.000
    Si2129   Si       0.34733    0.12275    0.29817    1.000
    N2130    N        0.34483    0.03796    0.33632    1.000
    Si2131   Si       0.38411    0.24086    0.35429    1.000
    N2132    N        0.38819    0.15179    0.35738    1.000
    Si2133   Si       0.35135    0.17819    0.34955    1.000
    N2134    N        0.34775    0.16489    0.30619    1.000
    N2135    N        0.36388    0.02168    0.43782    1.000
    N2136    N        0.35853    0.09184    0.38563    1.000
    N2137    N        0.39579    0.03438    0.37965    1.000
    Si2138   Si       0.39909    0.07577    0.38830    1.000
    Si2139   Si       0.35831    0.01048    0.39345    1.000
    Si2140   Si       0.34536    0.12743    0.40601    1.000
    N2141    N        0.39595    0.11447    0.48944    1.000
    N2142    N        0.34224    0.06462    0.50226    1.000
    Si2143   Si       0.39157    0.23451    0.47208    1.000
    N2144    N        0.37755    0.19586    0.48811    1.000
    N2145    N        0.36776    0.20918    0.38034    1.000
    N2146    N        0.37492    0.24812    0.43397    1.000
    Si2147   Si       0.39962    0.17519    0.39234    1.000
    Si2148   Si       0.35750    0.16967    0.45990    1.000
    N2149    N        0.37978    0.14921    0.42665    1.000
    Si2150   Si       0.36760    0.02181    0.61215    1.000
    N2151    N        0.38621    0.08320    0.54716    1.000
    Si2152   Si       0.35937    0.04915    0.53790    1.000
    N2153    N        0.38602    0.01850    0.52458    1.000
    Si2154   Si       0.35699    0.10766    0.50787    1.000
    N2155    N        0.39271    0.11590    0.60179    1.000
    N2156    N        0.39581    0.05342    0.62172    1.000
    Si2157   Si       0.35924    0.12760    0.57403    1.000
    N2158    N        0.34229    0.03501    0.57721    1.000
    N2159    N        0.38572    0.15535    0.55278    1.000
    Si2160   Si       0.38485    0.19296    0.53148    1.000
    Si2161   Si       0.35650    0.23454    0.59113    1.000
    N2162    N        0.35722    0.22162    0.55060    1.000
    N2163    N        0.39562    0.22165    0.60695    1.000
    Si2164   Si       0.35160    0.11122    0.71040    1.000
    Si2165   Si       0.38880    0.11712    0.64903    1.000
    N2166    N        0.35406    0.09747    0.67038    1.000
    N2167    N        0.35380    0.07882    0.74180    1.000
    N2168    N        0.38219    0.13897    0.72097    1.000
    Si2169   Si       0.38366    0.18031    0.69783    1.000
    Si2170   Si       0.34624    0.17053    0.63514    1.000
    N2171    N        0.35681    0.19928    0.72723    1.000
    N2172    N        0.38107    0.15934    0.65715    1.000
    Si2173   Si       0.35536    0.24090    0.70734    1.000
    N2174    N        0.38258    0.22297    0.67763    1.000
    Si2175   Si       0.36947    0.07791    0.78201    1.000
    N2176    N        0.38327    0.11805    0.79769    1.000
    N2177    N        0.34835    0.01146    0.84874    1.000
    N2178    N        0.35339    0.19106    0.79334    1.000
    N2179    N        0.36464    0.16629    0.84828    1.000
    Si2180   Si       0.36768    0.20767    0.83078    1.000
    N2181    N        0.36861    0.24353    0.85434    1.000
    Si2182   Si       0.35340    0.14832    0.80840    1.000
    Si2183   Si       0.37915    0.01898    0.87796    1.000
    N2184    N        0.38026    0.06230    0.88329    1.000
    N2185    N        0.37532    0.03734    0.97137    1.000
    N2186    N        0.36610    0.10332    0.97974    1.000
    N2187    N        0.34835    0.12277    0.89906    1.000
    Si2188   Si       0.39999    0.07617    0.97156    1.000
    Si2189   Si       0.34307    0.01959    0.94580    1.000
    Si2190   Si       0.34307    0.08011    0.89325    1.000
    Si2191   Si       0.35141    0.24797    0.89285    1.000
    N2192    N        0.37253    0.22084    0.91939    1.000
    N2193    N        0.36936    0.17374    0.97529    1.000
    Si2194   Si       0.38206    0.14620    0.88038    1.000
    Si2195   Si       0.34913    0.20633    0.95426    1.000
    Si2196   Si       0.36514    0.35989    0.11006    1.000
    N2197    N        0.39108    0.32851    0.09552    1.000
    N2198    N        0.39737    0.34734    0.01528    1.000
    Si2199   Si       0.36149    0.26863    0.99555    1.000
    Si2200   Si       0.35639    0.34119    0.99745    1.000
    N2201    N        0.34842    0.42824    0.03917    1.000
    N2202    N        0.36108    0.39757    0.09020    1.000
    Si2203   Si       0.38442    0.42413    0.06429    1.000
    Si2204   Si       0.38563    0.49294    0.09368    1.000
    N2205    N        0.34490    0.49698    0.08412    1.000
    N2206    N        0.35256    0.50801    0.00323    1.000
    Si2207   Si       0.34451    0.42007    0.99746    1.000
    Si2208   Si       0.37926    0.29674    0.18704    1.000
    N2209    N        0.36991    0.36711    0.15257    1.000
    N2210    N        0.36613    0.32048    0.22281    1.000
    Si2211   Si       0.38116    0.36086    0.22955    1.000
    N2212    N        0.39019    0.26416    0.21184    1.000
    N2213    N        0.35308    0.29236    0.15290    1.000
    Si2214   Si       0.36836    0.47476    0.19429    1.000
    N2215    N        0.34947    0.38793    0.21622    1.000
    N2216    N        0.35973    0.45280    0.15615    1.000
    Si2217   Si       0.39843    0.45376    0.13694    1.000
    Si2218   Si       0.38323    0.35205    0.34910    1.000
    Si2219   Si       0.36467    0.30052    0.31147    1.000
    N2220    N        0.38759    0.27223    0.27814    1.000
    N2221    N        0.39191    0.37186    0.26915    1.000
    N2222    N        0.35368    0.26550    0.33872    1.000
    Si2223   Si       0.35632    0.28314    0.24653    1.000
    N2224    N        0.40277    0.32000    0.32596    1.000
    N2225    N        0.34323    0.33375    0.33584    1.000
    N2226    N        0.39100    0.39523    0.33612    1.000
    Si2227   Si       0.38493    0.40474    0.29363    1.000
    Si2228   Si       0.36411    0.41832    0.36386    1.000
    N2229    N        0.34774    0.42370    0.28095    1.000
    N2230    N        0.38835    0.45294    0.37304    1.000
    Si2231   Si       0.38537    0.36179    0.48975    1.000
    Si2232   Si       0.36549    0.35411    0.41201    1.000
    N2233    N        0.36122    0.36577    0.45364    1.000
    N2234    N        0.35338    0.31041    0.40901    1.000
    Si2235   Si       0.38810    0.28325    0.41306    1.000
    N2236    N        0.40289    0.34923    0.38805    1.000
    N2237    N        0.34801    0.38651    0.38741    1.000
    Si2238   Si       0.39607    0.48799    0.48003    1.000
    N2239    N        0.37691    0.48366    0.44045    1.000
    Si2240   Si       0.36038    0.30686    0.59572    1.000
    N2241    N        0.37284    0.32801    0.51459    1.000
    N2242    N        0.39423    0.29229    0.57490    1.000
    N2243    N        0.38189    0.26182    0.50554    1.000
    Si2244   Si       0.39904    0.29398    0.53136    1.000
    Si2245   Si       0.34923    0.42823    0.51759    1.000
    Si2246   Si       0.36419    0.49791    0.53757    1.000
    N2247    N        0.37718    0.46502    0.51267    1.000
    N2248    N        0.38364    0.40346    0.50565    1.000
    N2249    N        0.35298    0.38868    0.61771    1.000
    N2250    N        0.40417    0.44159    0.62113    1.000
    N2251    N        0.36891    0.32338    0.63462    1.000
    Si2252   Si       0.38604    0.29702    0.66616    1.000
    N2253    N        0.34830    0.27913    0.68111    1.000
    N2254    N        0.36481    0.26758    0.74370    1.000
    N2255    N        0.34724    0.37606    0.68869    1.000
    Si2256   Si       0.34644    0.35878    0.64801    1.000
    Si2257   Si       0.40130    0.28896    0.74320    1.000
    Si2258   Si       0.36365    0.42794    0.63207    1.000
    Si2259   Si       0.37774    0.40315    0.70499    1.000
    N2260    N        0.36970    0.43743    0.67567    1.000
    Si2261   Si       0.37468    0.33272    0.79687    1.000
    N2262    N        0.35684    0.37245    0.80660    1.000
    N2263    N        0.39826    0.32790    0.76187    1.000
    N2264    N        0.39987    0.32972    0.83141    1.000
    Si2265   Si       0.38069    0.40920    0.79065    1.000
    Si2266   Si       0.36223    0.47112    0.80886    1.000
    N2267    N        0.35177    0.49530    0.77429    1.000
    N2268    N        0.34641    0.48501    0.84712    1.000
    N2269    N        0.40157    0.45371    0.80729    1.000
    N2270    N        0.36841    0.41087    0.74693    1.000
    Si2271   Si       0.39151    0.34007    0.87130    1.000
    N2272    N        0.39811    0.27246    0.96914    1.000
    N2273    N        0.35134    0.28682    0.91264    1.000
    Si2274   Si       0.38520    0.30175    0.93665    1.000
    N2275    N        0.35119    0.35163    0.88489    1.000
    N2276    N        0.37835    0.33791    0.95840    1.000
    Si2277   Si       0.38694    0.48855    0.98274    1.000
    Si2278   Si       0.39274    0.43017    0.94172    1.000
    N2279    N        0.36249    0.41827    0.91489    1.000
    N2280    N        0.37070    0.44897    0.97567    1.000
    Si2281   Si       0.35182    0.56736    0.09727    1.000
    N2282    N        0.35480    0.61052    0.09549    1.000
    Si2283   Si       0.38932    0.62350    0.06819    1.000
    Si2284   Si       0.35891    0.51894    0.04561    1.000
    N2285    N        0.34149    0.55687    0.05575    1.000
    N2286    N        0.40012    0.51272    0.05775    1.000
    N2287    N        0.36621    0.63855    0.03302    1.000
    Si2288   Si       0.35453    0.74464    0.07941    1.000
    N2289    N        0.38764    0.75167    0.05197    1.000
    N2290    N        0.36439    0.73361    0.12067    1.000
    N2291    N        0.34856    0.51358    0.19543    1.000
    Si2292   Si       0.38451    0.60571    0.14793    1.000
    Si2293   Si       0.35835    0.53837    0.23054    1.000
    N2294    N        0.38142    0.56314    0.13275    1.000
    Si2295   Si       0.38281    0.61205    0.22569    1.000
    N2296    N        0.35440    0.58097    0.21686    1.000
    N2297    N        0.34472    0.61952    0.15797    1.000
    Si2298   Si       0.39631    0.71385    0.14103    1.000
    N2299    N        0.36547    0.65030    0.22124    1.000
    Si2300   Si       0.39864    0.67387    0.20420    1.000
    N2301    N        0.37961    0.68302    0.16616    1.000
    Si2302   Si       0.36693    0.57973    0.35247    1.000
    N2303    N        0.37639    0.62027    0.34252    1.000
    N2304    N        0.39501    0.56711    0.31847    1.000
    N2305    N        0.40000    0.53561    0.24932    1.000
    N2306    N        0.39841    0.61125    0.26605    1.000
    N2307    N        0.39576    0.74338    0.31370    1.000
    Si2308   Si       0.35963    0.71965    0.30202    1.000
    N2309    N        0.36128    0.69074    0.33276    1.000
    Si2310   Si       0.34807    0.65075    0.34314    1.000
    N2311    N        0.39391    0.58041    0.45776    1.000
    Si2312   Si       0.38867    0.62179    0.46007    1.000
    Si2313   Si       0.36396    0.55136    0.48300    1.000
    N2314    N        0.35467    0.61951    0.43227    1.000
    Si2315   Si       0.36340    0.57788    0.42072    1.000
    N2316    N        0.39182    0.56850    0.38862    1.000
    N2317    N        0.34735    0.54367    0.44351    1.000
    N2318    N        0.40277    0.52856    0.48879    1.000
    Si2319   Si       0.34848    0.70769    0.37264    1.000
    N2320    N        0.38530    0.69841    0.46996    1.000
    N2321    N        0.37108    0.72052    0.40753    1.000
    Si2322   Si       0.35239    0.71386    0.44637    1.000
    Si2323   Si       0.37734    0.57009    0.58301    1.000
    Si2324   Si       0.36375    0.61006    0.52731    1.000
    N2325    N        0.37275    0.52415    0.57397    1.000
    N2326    N        0.39446    0.58915    0.54895    1.000
    N2327    N        0.40021    0.63514    0.60271    1.000
    N2328    N        0.35589    0.75406    0.56195    1.000
    Si2329   Si       0.37211    0.68103    0.50702    1.000
    N2330    N        0.38743    0.68573    0.54924    1.000
    Si2331   Si       0.36954    0.65751    0.57681    1.000
    N2332    N        0.35066    0.67087    0.61413    1.000
    Si2333   Si       0.39124    0.73007    0.55224    1.000
    N2334    N        0.37818    0.64043    0.49751    1.000
    N2335    N        0.37876    0.52539    0.71159    1.000
    N2336    N        0.37948    0.61321    0.65998    1.000
    Si2337   Si       0.34307    0.60127    0.67916    1.000
    Si2338   Si       0.34227    0.72161    0.71555    1.000
    N2339    N        0.38277    0.73034    0.70136    1.000
    N2340    N        0.36652    0.75541    0.63415    1.000
    Si2341   Si       0.39213    0.72329    0.65919    1.000
    Si2342   Si       0.37991    0.64953    0.63900    1.000
    N2343    N        0.40265    0.68057    0.65768    1.000
    N2344    N        0.37787    0.55623    0.77437    1.000
    N2345    N        0.36749    0.55510    0.84711    1.000
    N2346    N        0.35915    0.62200    0.78437    1.000
    Si2347   Si       0.36670    0.59224    0.75286    1.000
    Si2348   Si       0.38217    0.51917    0.75291    1.000
    Si2349   Si       0.39776    0.55590    0.81364    1.000
    Si2350   Si       0.40380    0.62632    0.78142    1.000
    N2351    N        0.39920    0.61465    0.86608    1.000
    N2352    N        0.34956    0.68896    0.82143    1.000
    Si2353   Si       0.36478    0.75094    0.78088    1.000
    Si2354   Si       0.39317    0.69298    0.81448    1.000
    N2355    N        0.39756    0.73607    0.80551    1.000
    N2356    N        0.34467    0.72006    0.75926    1.000
    Si2357   Si       0.36755    0.58740    0.87779    1.000
    N2358    N        0.38215    0.57414    0.91580    1.000
    N2359    N        0.35227    0.62846    0.96171    1.000
    N2360    N        0.39731    0.52022    0.95362    1.000
    Si2361   Si       0.38192    0.62652    0.99359    1.000
    N2362    N        0.39813    0.58869    0.98856    1.000
    N2363    N        0.38994    0.75652    0.97110    1.000
    Si2364   Si       0.39653    0.65235    0.88477    1.000
    Si2365   Si       0.35638    0.72861    0.96116    1.000
    N2366    N        0.37281    0.69035    0.95465    1.000
    N2367    N        0.35501    0.66015    0.89254    1.000
    Si2368   Si       0.34838    0.66097    0.93576    1.000
    N2369    N        0.36164    0.80777    0.02026    1.000
    Si2370   Si       0.37274    0.83929    0.05032    1.000
    N2371    N        0.35905    0.86987    0.02014    1.000
    Si2372   Si       0.37214    0.76559    0.01147    1.000
    Si2373   Si       0.34693    0.88485    0.09911    1.000
    N2374    N        0.35730    0.91731    0.06946    1.000
    Si2375   Si       0.36660    0.96024    0.07985    1.000
    N2376    N        0.37161    0.97677    0.99939    1.000
    Si2377   Si       0.39725    0.01415    0.00154    1.000
    N2378    N        0.37804    0.87167    0.12802    1.000
    N2379    N        0.39289    0.79156    0.21379    1.000
    Si2380   Si       0.37871    0.81211    0.17865    1.000
    N2381    N        0.36696    0.85070    0.19815    1.000
    Si2382   Si       0.37407    0.82505    0.24092    1.000
    Si2383   Si       0.38051    0.88061    0.16980    1.000
    Si2384   Si       0.39055    0.95415    0.22989    1.000
    N2385    N        0.34833    0.96902    0.22683    1.000
    N2386    N        0.38375    0.91080    0.23963    1.000
    N2387    N        0.36647    0.92116    0.16865    1.000
    N2388    N        0.35526    0.96362    0.12377    1.000
    Si2389   Si       0.39235    0.95467    0.15528    1.000
    N2390    N        0.36756    0.86548    0.34920    1.000
    N2391    N        0.38802    0.80209    0.27794    1.000
    Si2392   Si       0.37199    0.78199    0.31294    1.000
    Si2393   Si       0.37998    0.82527    0.36503    1.000
    N2394    N        0.34702    0.86258    0.28008    1.000
    N2395    N        0.34594    0.80928    0.33725    1.000
    Si2396   Si       0.35896    0.90503    0.27418    1.000
    N2397    N        0.38377    0.91957    0.30714    1.000
    Si2398   Si       0.40166    0.89220    0.33690    1.000
    N2399    N        0.40146    0.98458    0.33224    1.000
    N2400    N        0.39014    0.84659    0.47001    1.000
    Si2401   Si       0.38242    0.86477    0.42960    1.000
    N2402    N        0.36732    0.79049    0.39137    1.000
    Si2403   Si       0.34926    0.84521    0.49099    1.000
    N2404    N        0.33926    0.86401    0.41656    1.000
    Si2405   Si       0.39153    0.75914    0.40918    1.000
    Si2406   Si       0.38052    0.93404    0.39690    1.000
    N2407    N        0.38665    0.97598    0.40084    1.000
    Si2408   Si       0.39578    0.99422    0.44245    1.000
    N2409    N        0.39276    0.96554    0.47489    1.000
    N2410    N        0.38354    0.90796    0.43665    1.000
    Si2411   Si       0.36420    0.79352    0.54395    1.000
    N2412    N        0.39269    0.80267    0.57453    1.000
    N2413    N        0.36824    0.77786    0.50269    1.000
    N2414    N        0.34569    0.83153    0.53119    1.000
    N2415    N        0.39473    0.86485    0.60414    1.000
    Si2416   Si       0.40143    0.77320    0.60760    1.000
    Si2417   Si       0.36987    0.98160    0.50666    1.000
    Si2418   Si       0.37712    0.90067    0.58490    1.000
    N2419    N        0.36255    0.95871    0.54358    1.000
    N2420    N        0.38697    0.98267    0.60586    1.000
    Si2421   Si       0.39958    0.96364    0.56706    1.000
    N2422    N        0.34380    0.89512    0.55986    1.000
    N2423    N        0.37340    0.86155    0.67132    1.000
    N2424    N        0.38668    0.79387    0.68824    1.000
    N2425    N        0.38272    0.84565    0.74071    1.000
    Si2426   Si       0.39390    0.83667    0.69946    1.000
    Si2427   Si       0.34871    0.77873    0.66869    1.000
    Si2428   Si       0.40173    0.76586    0.71667    1.000
    Si2429   Si       0.39575    0.99651    0.70312    1.000
    Si2430   Si       0.39308    0.88633    0.64261    1.000
    N2431    N        0.35174    0.99545    0.70964    1.000
    N2432    N        0.36821    0.91765    0.62558    1.000
    Si2433   Si       0.37419    0.95850    0.64136    1.000
    Si2434   Si       0.35803    0.81223    0.83123    1.000
    N2435    N        0.37519    0.84003    0.80173    1.000
    N2436    N        0.39154    0.79117    0.84916    1.000
    N2437    N        0.38247    0.77894    0.75447    1.000
    Si2438   Si       0.37791    0.88165    0.81043    1.000
    Si2439   Si       0.39616    0.81707    0.77124    1.000
    N2440    N        0.35290    0.88856    0.84504    1.000
    N2441    N        0.37661    0.91315    0.78085    1.000
    Si2442   Si       0.35941    0.97935    0.82005    1.000
    N2443    N        0.35467    0.99962    0.78137    1.000
    Si2444   Si       0.38879    0.89895    0.86713    1.000
    N2445    N        0.40123    0.97015    0.80858    1.000
    Si2446   Si       0.39817    0.00506    0.77943    1.000
    N2447    N        0.39259    0.86794    0.89553    1.000
    N2448    N        0.36691    0.85291    0.96148    1.000
    N2449    N        0.36438    0.80726    0.90841    1.000
    Si2450   Si       0.35978    0.84964    0.91858    1.000
    Si2451   Si       0.39320    0.87432    0.99149    1.000
    N2452    N        0.36387    0.99791    0.91270    1.000
    Si2453   Si       0.40086    0.95274    0.96862    1.000
    N2454    N        0.36127    0.94163    0.94864    1.000
    Si2455   Si       0.35602    0.95625    0.90888    1.000
    N2456    N        0.38657    0.93944    0.88166    1.000
    Si2457   Si       0.42814    0.08863    0.09677    1.000
    N2458    N        0.42994    0.04574    0.10830    1.000
    N2459    N        0.44210    0.09221    0.05625    1.000
    Si2460   Si       0.42452    0.01724    0.07456    1.000
    Si2461   Si       0.44701    0.13116    0.03825    1.000
    Si2462   Si       0.45740    0.06122    0.02906    1.000
    N2463    N        0.44060    0.23647    0.07573    1.000
    N2464    N        0.43213    0.15497    0.07270    1.000
    Si2465   Si       0.41869    0.23779    0.03856    1.000
    Si2466   Si       0.41657    0.21906    0.10715    1.000
    N2467    N        0.45272    0.24976    0.00982    1.000
    Si2468   Si       0.45294    0.15666    0.10935    1.000
    N2469    N        0.40993    0.19880    0.02339    1.000
    N2470    N        0.45165    0.11542    0.12398    1.000
    Si2471   Si       0.42602    0.06186    0.20219    1.000
    N2472    N        0.42329    0.02171    0.21706    1.000
    N2473    N        0.41257    0.08635    0.23343    1.000
    N2474    N        0.46232    0.07451    0.18166    1.000
    Si2475   Si       0.46054    0.11407    0.16604    1.000
    N2476    N        0.45239    0.25988    0.19150    1.000
    Si2477   Si       0.42911    0.19502    0.22881    1.000
    Si2478   Si       0.40715    0.17184    0.16531    1.000
    N2479    N        0.43166    0.18674    0.13198    1.000
    N2480    N        0.42725    0.13604    0.18232    1.000
    N2481    N        0.44945    0.09799    0.28721    1.000
    N2482    N        0.42573    0.09426    0.35908    1.000
    Si2483   Si       0.41305    0.12563    0.33305    1.000
    Si2484   Si       0.40848    0.08200    0.27662    1.000
    Si2485   Si       0.42455    0.01383    0.25910    1.000
    Si2486   Si       0.44987    0.13969    0.27717    1.000
    N2487    N        0.44072    0.15697    0.31449    1.000
    Si2488   Si       0.44364    0.19541    0.33667    1.000
    N2489    N        0.43327    0.22874    0.25469    1.000
    Si2490   Si       0.41961    0.24671    0.29073    1.000
    N2491    N        0.41061    0.22040    0.32259    1.000
    N2492    N        0.42242    0.15665    0.24817    1.000
    Si2493   Si       0.43850    0.05263    0.45608    1.000
    N2494    N        0.41581    0.08175    0.42905    1.000
    Si2495   Si       0.40951    0.12142    0.44755    1.000
    N2496    N        0.43628    0.00996    0.44316    1.000
    N2497    N        0.43949    0.18532    0.38140    1.000
    N2498    N        0.44672    0.14331    0.43502    1.000
    N2499    N        0.43492    0.23170    0.47226    1.000
    N2500    N        0.43265    0.04291    0.56867    1.000
    Si2501   Si       0.43026    0.02492    0.52812    1.000
    N2502    N        0.44389    0.11450    0.55313    1.000
    Si2503   Si       0.42061    0.09508    0.51976    1.000
    Si2504   Si       0.40461    0.07299    0.58415    1.000
    N2505    N        0.43073    0.05984    0.49857    1.000
    Si2506   Si       0.41978    0.14064    0.57591    1.000
    Si2507   Si       0.42973    0.21241    0.57990    1.000
    N2508    N        0.42456    0.20932    0.53634    1.000
    N2509    N        0.44240    0.17322    0.59325    1.000
    N2510    N        0.45387    0.24793    0.58498    1.000
    Si2511   Si       0.45575    0.21399    0.50624    1.000
    N2512    N        0.45015    0.12083    0.73073    1.000
    N2513    N        0.42471    0.09832    0.66762    1.000
    Si2514   Si       0.42481    0.05765    0.65300    1.000
    N2515    N        0.41382    0.03072    0.68579    1.000
    N2516    N        0.44953    0.21275    0.65611    1.000
    Si2517   Si       0.41984    0.14968    0.73971    1.000
    N2518    N        0.42621    0.18465    0.71133    1.000
    Si2519   Si       0.41083    0.23113    0.64551    1.000
    Si2520   Si       0.44727    0.05561    0.78906    1.000
    N2521    N        0.44981    0.09731    0.80088    1.000
    Si2522   Si       0.42177    0.12803    0.81521    1.000
    Si2523   Si       0.45440    0.02137    0.85736    1.000
    N2524    N        0.41482    0.11812    0.86265    1.000
    N2525    N        0.40370    0.04618    0.78662    1.000
    N2526    N        0.45196    0.06160    0.87061    1.000
    N2527    N        0.42836    0.16068    0.78121    1.000
    Si2528   Si       0.44445    0.18848    0.80890    1.000
    N2529    N        0.41183    0.21285    0.82449    1.000
    Si2530   Si       0.41460    0.24779    0.84971    1.000
    N2531    N        0.45810    0.15643    0.83397    1.000
    Si2532   Si       0.45773    0.25592    0.79334    1.000
    Si2533   Si       0.42019    0.08305    0.89007    1.000
    N2534    N        0.42349    0.07966    0.93319    1.000
    N2535    N        0.43440    0.05834    0.99266    1.000
    Si2536   Si       0.45732    0.05951    0.95536    1.000
    Si2537   Si       0.41322    0.17817    0.98478    1.000
    N2538    N        0.43075    0.23934    0.88871    1.000
    N2539    N        0.42712    0.20779    0.95764    1.000
    Si2540   Si       0.45252    0.15071    0.87978    1.000
    N2541    N        0.41440    0.16973    0.89858    1.000
    Si2542   Si       0.41367    0.20948    0.91619    1.000
    Si2543   Si       0.43421    0.24873    0.97020    1.000
    N2544    N        0.42811    0.13883    0.00107    1.000
    Si2545   Si       0.42859    0.36625    0.03855    1.000
    N2546    N        0.44833    0.30050    0.11276    1.000
    N2547    N        0.45379    0.37032    0.00236    1.000
    N2548    N        0.45590    0.34386    0.06347    1.000
    N2549    N        0.42144    0.41205    0.03966    1.000
    Si2550   Si       0.44178    0.44443    0.07068    1.000
    Si2551   Si       0.43542    0.50554    0.03426    1.000
    N2552    N        0.42954    0.47980    0.99969    1.000
    N2553    N        0.40145    0.45158    0.09219    1.000
    Si2554   Si       0.43614    0.41175    0.99859    1.000
    Si2555   Si       0.40175    0.29724    0.12050    1.000
    Si2556   Si       0.42946    0.26366    0.22863    1.000
    N2557    N        0.41887    0.36356    0.20570    1.000
    N2558    N        0.41153    0.31004    0.16401    1.000
    Si2559   Si       0.40999    0.35524    0.16508    1.000
    N2560    N        0.43313    0.36906    0.13054    1.000
    Si2561   Si       0.45244    0.28468    0.15585    1.000
    Si2562   Si       0.45756    0.38179    0.21642    1.000
    N2563    N        0.45886    0.29316    0.24331    1.000
    Si2564   Si       0.44299    0.45131    0.19626    1.000
    N2565    N        0.41015    0.48000    0.20531    1.000
    N2566    N        0.44448    0.42141    0.22962    1.000
    N2567    N        0.40066    0.49991    0.13418    1.000
    Si2568   Si       0.45718    0.40448    0.13915    1.000
    N2569    N        0.43012    0.43422    0.15777    1.000
    Si2570   Si       0.43355    0.29461    0.34626    1.000
    N2571    N        0.44988    0.27142    0.31162    1.000
    N2572    N        0.45910    0.32498    0.35930    1.000
    Si2573   Si       0.45301    0.42946    0.27473    1.000
    Si2574   Si       0.43386    0.41490    0.33553    1.000
    N2575    N        0.41519    0.43752    0.29583    1.000
    Si2576   Si       0.41412    0.48051    0.35077    1.000
    N2577    N        0.44981    0.45507    0.35049    1.000
    N2578    N        0.40948    0.50350    0.31618    1.000
    N2579    N        0.45913    0.39636    0.30409    1.000
    N2580    N        0.40828    0.27068    0.37394    1.000
    N2581    N        0.42594    0.35284    0.48084    1.000
    Si2582   Si       0.44577    0.35527    0.38686    1.000
    Si2583   Si       0.44708    0.32580    0.45492    1.000
    N2584    N        0.42413    0.29351    0.43640    1.000
    Si2585   Si       0.45482    0.26422    0.44963    1.000
    N2586    N        0.42433    0.50626    0.38806    1.000
    Si2587   Si       0.40540    0.47186    0.40949    1.000
    N2588    N        0.45104    0.39647    0.37427    1.000
    N2589    N        0.43625    0.44703    0.42383    1.000
    N2590    N        0.44796    0.41242    0.49224    1.000
    N2591    N        0.43484    0.47154    0.48786    1.000
    N2592    N        0.44044    0.30585    0.52927    1.000
    Si2593   Si       0.42910    0.28235    0.59996    1.000
    N2594    N        0.45225    0.32064    0.59948    1.000
    Si2595   Si       0.41368    0.43587    0.51195    1.000
    N2596    N        0.43360    0.49677    0.59012    1.000
    Si2597   Si       0.43257    0.45290    0.59221    1.000
    N2598    N        0.42434    0.43660    0.55338    1.000
    Si2599   Si       0.41919    0.34331    0.72787    1.000
    N2600    N        0.41460    0.27421    0.64137    1.000
    N2601    N        0.40626    0.30864    0.70308    1.000
    N2602    N        0.44051    0.37746    0.64446    1.000
    N2603    N        0.41667    0.37943    0.70729    1.000
    N2604    N        0.43958    0.44246    0.68033    1.000
    N2605    N        0.40485    0.50263    0.65175    1.000
    Si2606   Si       0.40504    0.45999    0.66071    1.000
    Si2607   Si       0.44565    0.39948    0.68142    1.000
    N2608    N        0.45265    0.50872    0.70321    1.000
    Si2609   Si       0.43266    0.35879    0.82735    1.000
    N2610    N        0.44690    0.27090    0.83233    1.000
    N2611    N        0.43538    0.26504    0.75706    1.000
    N2612    N        0.42067    0.39321    0.80002    1.000
    Si2613   Si       0.42880    0.48613    0.79771    1.000
    N2614    N        0.43300    0.43413    0.86306    1.000
    Si2615   Si       0.44054    0.42752    0.81963    1.000
    N2616    N        0.42162    0.50412    0.76021    1.000
    N2617    N        0.42697    0.36798    0.87136    1.000
    N2618    N        0.44692    0.34116    0.94695    1.000
    N2619    N        0.40993    0.31486    0.90223    1.000
    Si2620   Si       0.44983    0.33580    0.90243    1.000
    Si2621   Si       0.41467    0.35691    0.97423    1.000
    N2622    N        0.44949    0.50259    0.89315    1.000
    N2623    N        0.40966    0.39971    0.96654    1.000
    N2624    N        0.41876    0.46128    0.92872    1.000
    Si2625   Si       0.43213    0.50413    0.93318    1.000
    Si2626   Si       0.44898    0.45723    0.89713    1.000
    Si2627   Si       0.42646    0.57793    0.02139    1.000
    N2628    N        0.44623    0.54153    0.01117    1.000
    N2629    N        0.40696    0.58672    0.05840    1.000
    N2630    N        0.45287    0.54907    0.11996    1.000
    N2631    N        0.42511    0.65041    0.06375    1.000
    Si2632   Si       0.44387    0.65439    0.10104    1.000
    Si2633   Si       0.44345    0.64621    0.02540    1.000
    N2634    N        0.43727    0.75968    0.10182    1.000
    N2635    N        0.42792    0.69469    0.11878    1.000
    Si2636   Si       0.43056    0.75997    0.05908    1.000
    N2637    N        0.41892    0.62032    0.12313    1.000
    Si2638   Si       0.45537    0.59553    0.12408    1.000
    Si2639   Si       0.44101    0.58451    0.19679    1.000
    Si2640   Si       0.41523    0.53822    0.14408    1.000
    N2641    N        0.42711    0.54354    0.18478    1.000
    Si2642   Si       0.42451    0.51731    0.21922    1.000
    N2643    N        0.45411    0.58878    0.23760    1.000
    N2644    N        0.40583    0.60730    0.18615    1.000
    N2645    N        0.40677    0.71264    0.22224    1.000
    N2646    N        0.41397    0.74974    0.16455    1.000
    Si2647   Si       0.44378    0.69840    0.23892    1.000
    N2648    N        0.43308    0.65848    0.22775    1.000
    Si2649   Si       0.41183    0.75323    0.20713    1.000
    Si2650   Si       0.41314    0.53946    0.29153    1.000
    N2651    N        0.45413    0.55005    0.29093    1.000
    Si2652   Si       0.44500    0.62710    0.25709    1.000
    N2653    N        0.45616    0.56332    0.36296    1.000
    N2654    N        0.43975    0.63309    0.30752    1.000
    Si2655   Si       0.40311    0.60998    0.30816    1.000
    Si2656   Si       0.43412    0.72501    0.31518    1.000
    N2657    N        0.44051    0.69762    0.34691    1.000
    N2658    N        0.44720    0.70506    0.27967    1.000
    Si2659   Si       0.45826    0.65890    0.33679    1.000
    N2660    N        0.45087    0.55286    0.43128    1.000
    Si2661   Si       0.42923    0.54919    0.39323    1.000
    Si2662   Si       0.43054    0.56052    0.47079    1.000
    N2663    N        0.42190    0.64212    0.44192    1.000
    Si2664   Si       0.45495    0.65025    0.41347    1.000
    Si2665   Si       0.42238    0.68532    0.45258    1.000
    Si2666   Si       0.45117    0.71994    0.38351    1.000
    N2667    N        0.44059    0.69332    0.41522    1.000
    N2668    N        0.45296    0.69190    0.48265    1.000
    N2669    N        0.46130    0.63475    0.37287    1.000
    Si2670   Si       0.43708    0.59046    0.54557    1.000
    N2671    N        0.44613    0.58709    0.50069    1.000
    N2672    N        0.45587    0.62532    0.56249    1.000
    N2673    N        0.40599    0.56128    0.61503    1.000
    Si2674   Si       0.40233    0.51871    0.60991    1.000
    Si2675   Si       0.44419    0.63685    0.60253    1.000
    N2676    N        0.45359    0.67777    0.61406    1.000
    N2677    N        0.41672    0.73949    0.51801    1.000
    N2678    N        0.41577    0.73626    0.58744    1.000
    Si2679   Si       0.45531    0.71947    0.51758    1.000
    Si2680   Si       0.45430    0.71240    0.59033    1.000
    N2681    N        0.45333    0.60744    0.63416    1.000
    Si2682   Si       0.43646    0.59434    0.71528    1.000
    Si2683   Si       0.41487    0.52667    0.68900    1.000
    N2684    N        0.42609    0.56736    0.68333    1.000
    Si2685   Si       0.41514    0.58875    0.64643    1.000
    Si2686   Si       0.45705    0.52352    0.74430    1.000
    N2687    N        0.45493    0.56750    0.74495    1.000
    N2688    N        0.40500    0.61006    0.74120    1.000
    N2689    N        0.46492    0.62425    0.70010    1.000
    N2690    N        0.46113    0.69409    0.74070    1.000
    Si2691   Si       0.44532    0.69232    0.65417    1.000
    N2692    N        0.43516    0.73409    0.65781    1.000
    N2693    N        0.42298    0.59278    0.80790    1.000
    Si2694   Si       0.43685    0.60260    0.84910    1.000
    N2695    N        0.42791    0.52288    0.82105    1.000
    Si2696   Si       0.45720    0.52675    0.85699    1.000
    Si2697   Si       0.45844    0.59109    0.78045    1.000
    N2698    N        0.45441    0.56859    0.86916    1.000
    N2699    N        0.41246    0.66871    0.78463    1.000
    N2700    N        0.41172    0.67729    0.85049    1.000
    Si2701   Si       0.45509    0.67180    0.77664    1.000
    N2702    N        0.45439    0.75335    0.83952    1.000
    Si2703   Si       0.45608    0.67431    0.84711    1.000
    N2704    N        0.44631    0.56192    0.94196    1.000
    Si2705   Si       0.40210    0.56404    0.95110    1.000
    N2706    N        0.44193    0.71142    0.95146    1.000
    N2707    N        0.41590    0.65300    0.99129    1.000
    N2708    N        0.41882    0.75509    0.90544    1.000
    Si2709   Si       0.45428    0.74263    0.88156    1.000
    N2710    N        0.42347    0.66114    0.91854    1.000
    Si2711   Si       0.42616    0.75121    0.94885    1.000
    Si2712   Si       0.41328    0.68067    0.95900    1.000
    N2713    N        0.42488    0.85311    0.01179    1.000
    Si2714   Si       0.44463    0.83453    0.04780    1.000
    N2715    N        0.44883    0.79223    0.03608    1.000
    N2716    N        0.41037    0.83338    0.07375    1.000
    Si2717   Si       0.41065    0.84605    0.11563    1.000
    N2718    N        0.45710    0.91559    0.07252    1.000
    Si2719   Si       0.44275    0.94819    0.09444    1.000
    N2720    N        0.41090    0.97433    0.07989    1.000
    Si2721   Si       0.44819    0.83899    0.16480    1.000
    N2722    N        0.44827    0.86358    0.12753    1.000
    Si2723   Si       0.43167    0.77909    0.14018    1.000
    Si2724   Si       0.43873    0.80870    0.23548    1.000
    N2725    N        0.44960    0.76675    0.22879    1.000
    N2726    N        0.41110    0.81746    0.14986    1.000
    N2727    N        0.41273    0.84450    0.24521    1.000
    N2728    N        0.41954    0.95094    0.19484    1.000
    Si2729   Si       0.41611    0.88413    0.22933    1.000
    N2730    N        0.45070    0.90443    0.24493    1.000
    N2731    N        0.42886    0.93646    0.13407    1.000
    N2732    N        0.42250    0.88170    0.18484    1.000
    Si2733   Si       0.43714    0.99346    0.18692    1.000
    Si2734   Si       0.44061    0.91876    0.17038    1.000
    N2735    N        0.40936    0.99658    0.15278    1.000
    Si2736   Si       0.42045    0.82910    0.29235    1.000
    N2737    N        0.42748    0.86885    0.30894    1.000
    Si2738   Si       0.44113    0.78483    0.35360    1.000
    N2739    N        0.40870    0.80750    0.33643    1.000
    N2740    N        0.45939    0.81522    0.27376    1.000
    Si2741   Si       0.41237    0.95316    0.30387    1.000
    N2742    N        0.45005    0.93161    0.30892    1.000
    N2743    N        0.41123    0.97243    0.26400    1.000
    Si2744   Si       0.45407    0.89357    0.28626    1.000
    Si2745   Si       0.41578    0.99696    0.37083    1.000
    N2746    N        0.41281    0.91512    0.37174    1.000
    Si2747   Si       0.44713    0.77653    0.42651    1.000
    Si2748   Si       0.44578    0.84252    0.39631    1.000
    Si2749   Si       0.40981    0.77184    0.49119    1.000
    N2750    N        0.40295    0.84518    0.39749    1.000
    Si2751   Si       0.42619    0.84468    0.49396    1.000
    N2752    N        0.41006    0.76873    0.44861    1.000
    N2753    N        0.43179    0.75879    0.38918    1.000
    N2754    N        0.45499    0.81693    0.42989    1.000
    Si2755   Si       0.41376    0.93062    0.45765    1.000
    N2756    N        0.44328    0.94398    0.42701    1.000
    N2757    N        0.45917    0.00003    0.37775    1.000
    N2758    N        0.43144    0.91070    0.49326    1.000
    Si2759   Si       0.45240    0.91859    0.38926    1.000
    N2760    N        0.41162    0.86045    0.53368    1.000
    Si2761   Si       0.41190    0.84183    0.57257    1.000
    N2762    N        0.45449    0.84205    0.57795    1.000
    N2763    N        0.43771    0.80411    0.50399    1.000
    Si2764   Si       0.43144    0.89990    0.53687    1.000
    N2765    N        0.43199    0.97969    0.54391    1.000
    N2766    N        0.41261    0.92129    0.56855    1.000
    N2767    N        0.43606    0.79419    0.62301    1.000
    N2768    N        0.43826    0.84040    0.69749    1.000
    N2769    N        0.44363    0.76653    0.72389    1.000
    Si2770   Si       0.46007    0.87110    0.67543    1.000
    Si2771   Si       0.46117    0.76297    0.64209    1.000
    Si2772   Si       0.46100    0.80461    0.70953    1.000
    N2773    N        0.41603    0.99010    0.74245    1.000
    N2774    N        0.43056    0.90030    0.66401    1.000
    N2775    N        0.40073    0.96400    0.67493    1.000
    Si2776   Si       0.43895    0.94117    0.67514    1.000
    N2777    N        0.43259    0.79834    0.79053    1.000
    Si2778   Si       0.41918    0.77048    0.82043    1.000
    N2779    N        0.41636    0.89796    0.83165    1.000
    Si2780   Si       0.41249    0.92849    0.79862    1.000
    N2781    N        0.45143    0.93524    0.77933    1.000
    N2782    N        0.45524    0.94019    0.86559    1.000
    Si2783   Si       0.45698    0.89766    0.84670    1.000
    Si2784   Si       0.45136    0.96624    0.74674    1.000
    N2785    N        0.44009    0.87205    0.94855    1.000
    N2786    N        0.43746    0.81703    0.90383    1.000
    Si2787   Si       0.43283    0.86091    0.90902    1.000
    Si2788   Si       0.40107    0.79219    0.89344    1.000
    Si2789   Si       0.45716    0.87097    0.98775    1.000
    N2790    N        0.45632    0.78247    0.96018    1.000
    N2791    N        0.42769    0.95925    0.93425    1.000
    N2792    N        0.41873    0.00058    0.87419    1.000
    Si2793   Si       0.45808    0.98337    0.95515    1.000
    N2794    N        0.43081    0.98804    0.98811    1.000
    Si2795   Si       0.42435    0.95941    0.88983    1.000
    N2796    N        0.40447    0.91540    0.98977    1.000
    N2797    N        0.49951    0.07689    0.02690    1.000
    N2798    N        0.46034    0.02281    0.04962    1.000
    Si2799   Si       0.50447    0.11482    0.00024    1.000
    N2800    N        0.48960    0.14209    0.03372    1.000
    N2801    N        0.51017    0.21777    0.05890    1.000
    Si2802   Si       0.49075    0.24813    0.03260    1.000
    N2803    N        0.49550    0.15896    0.09901    1.000
    Si2804   Si       0.50781    0.17345    0.05716    1.000
    N2805    N        0.51094    0.03579    0.13141    1.000
    Si2806   Si       0.49275    0.04474    0.17210    1.000
    N2807    N        0.46690    0.19431    0.20405    1.000
    Si2808   Si       0.51449    0.16476    0.13956    1.000
    Si2809   Si       0.48035    0.22853    0.17708    1.000
    Si2810   Si       0.49562    0.16258    0.21119    1.000
    N2811    N        0.51360    0.24830    0.20470    1.000
    N2812    N        0.51184    0.20596    0.15401    1.000
    N2813    N        0.46828    0.24736    0.13672    1.000
    N2814    N        0.49512    0.14131    0.17171    1.000
    Si2815   Si       0.47847    0.06442    0.29029    1.000
    N2816    N        0.48190    0.05854    0.33217    1.000
    Si2817   Si       0.46936    0.08907    0.36260    1.000
    N2818    N        0.50939    0.07379    0.26056    1.000
    Si2819   Si       0.48861    0.01595    0.34816    1.000
    Si2820   Si       0.51757    0.11653    0.26629    1.000
    N2821    N        0.46431    0.02639    0.27329    1.000
    N2822    N        0.48333    0.13293    0.36582    1.000
    N2823    N        0.48522    0.21235    0.33467    1.000
    Si2824   Si       0.48774    0.25398    0.32155    1.000
    N2825    N        0.48850    0.14431    0.25240    1.000
    N2826    N        0.48753    0.07613    0.39825    1.000
    N2827    N        0.48251    0.04954    0.46016    1.000
    Si2828   Si       0.50085    0.08145    0.43888    1.000
    N2829    N        0.50377    0.11768    0.46342    1.000
    Si2830   Si       0.50101    0.03035    0.49318    1.000
    Si2831   Si       0.46887    0.15886    0.39719    1.000
    N2832    N        0.48168    0.24492    0.42118    1.000
    N2833    N        0.48017    0.17970    0.49300    1.000
    Si2834   Si       0.48327    0.15505    0.45789    1.000
    N2835    N        0.49733    0.17746    0.42284    1.000
    Si2836   Si       0.51569    0.21985    0.42484    1.000
    Si2837   Si       0.48674    0.10901    0.56287    1.000
    N2838    N        0.49816    0.06815    0.57389    1.000
    Si2839   Si       0.47129    0.03782    0.58953    1.000
    N2840    N        0.47499    0.01786    0.52347    1.000
    N2841    N        0.51125    0.12894    0.53218    1.000
    N2842    N        0.49934    0.13328    0.59688    1.000
    N2843    N        0.49460    0.19317    0.55865    1.000
    Si2844   Si       0.48971    0.23871    0.56051    1.000
    N2845    N        0.48467    0.24837    0.51926    1.000
    Si2846   Si       0.48511    0.17362    0.59740    1.000
    Si2847   Si       0.50905    0.17132    0.52405    1.000
    N2848    N        0.50602    0.19865    0.62384    1.000
    Si2849   Si       0.48773    0.04646    0.71872    1.000
    N2850    N        0.48639    0.07625    0.68589    1.000
    Si2851   Si       0.49618    0.04782    0.65541    1.000
    N2852    N        0.49513    0.01450    0.68606    1.000
    N2853    N        0.46046    0.05094    0.62933    1.000
    Si2854   Si       0.45905    0.11017    0.68808    1.000
    N2855    N        0.50285    0.20074    0.69135    1.000
    Si2856   Si       0.49033    0.22545    0.65442    1.000
    N2857    N        0.48166    0.14575    0.67577    1.000
    Si2858   Si       0.46104    0.18330    0.68743    1.000
    N2859    N        0.51086    0.10786    0.84301    1.000
    Si2860   Si       0.47285    0.10533    0.76388    1.000
    N2861    N        0.47094    0.06216    0.75366    1.000
    N2862    N        0.50093    0.13682    0.77625    1.000
    N2863    N        0.46072    0.02510    0.81515    1.000
    Si2864   Si       0.49656    0.14289    0.81958    1.000
    N2865    N        0.47384    0.21735    0.79533    1.000
    Si2866   Si       0.51717    0.21324    0.79901    1.000
    Si2867   Si       0.48798    0.08544    0.87429    1.000
    N2868    N        0.47081    0.02121    0.93900    1.000
    N2869    N        0.48975    0.08683    0.96408    1.000
    Si2870   Si       0.50457    0.01992    0.91051    1.000
    N2871    N        0.47451    0.11819    0.89897    1.000
    N2872    N        0.51104    0.06366    0.90452    1.000
    Si2873   Si       0.49977    0.11618    0.93426    1.000
    N2874    N        0.50249    0.14680    0.96595    1.000
    N2875    N        0.51518    0.21174    0.94339    1.000
    N2876    N        0.50472    0.24091    0.88125    1.000
    N2877    N        0.47919    0.18289    0.89514    1.000
    Si2878   Si       0.50438    0.25100    0.95836    1.000
    Si2879   Si       0.51531    0.20372    0.90140    1.000
    N2880    N        0.46567    0.26111    0.94247    1.000
    Si2881   Si       0.46920    0.26039    0.89822    1.000
    N2882    N        0.49077    0.27992    0.06250    1.000
    Si2883   Si       0.48882    0.31950    0.04620    1.000
    N2884    N        0.49109    0.31525    0.00216    1.000
    Si2885   Si       0.46536    0.26471    0.09628    1.000
    N2886    N        0.49854    0.35176    0.12095    1.000
    Si2887   Si       0.45716    0.34180    0.10545    1.000
    Si2888   Si       0.49951    0.45155    0.10474    1.000
    Si2889   Si       0.50298    0.48939    0.04935    1.000
    N2890    N        0.50649    0.48660    0.00610    1.000
    N2891    N        0.46483    0.42356    0.10031    1.000
    N2892    N        0.46163    0.48028    0.05781    1.000
    Si2893   Si       0.48936    0.28678    0.21054    1.000
    N2894    N        0.48379    0.31144    0.17398    1.000
    Si2895   Si       0.49643    0.35140    0.16468    1.000
    N2896    N        0.47274    0.38489    0.17635    1.000
    N2897    N        0.48935    0.37318    0.24390    1.000
    N2898    N        0.48471    0.46314    0.19762    1.000
    Si2899   Si       0.51124    0.46989    0.16334    1.000
    N2900    N        0.49617    0.49029    0.12703    1.000
    Si2901   Si       0.49218    0.48021    0.23919    1.000
    Si2902   Si       0.49958    0.32383    0.34525    1.000
    Si2903   Si       0.49221    0.37132    0.28799    1.000
    N2904    N        0.49657    0.33107    0.30044    1.000
    Si2905   Si       0.49244    0.30073    0.26995    1.000
    N2906    N        0.50800    0.28003    0.35377    1.000
    N2907    N        0.51041    0.26474    0.28653    1.000
    N2908    N        0.48986    0.44993    0.27342    1.000
    Si2909   Si       0.48758    0.47619    0.34988    1.000
    N2910    N        0.49395    0.36821    0.48722    1.000
    Si2911   Si       0.49594    0.37367    0.44461    1.000
    N2912    N        0.47485    0.29769    0.47209    1.000
    N2913    N        0.46668    0.34858    0.42411    1.000
    N2914    N        0.48758    0.41442    0.43298    1.000
    Si2915   Si       0.46052    0.44112    0.46147    1.000
    N2916    N        0.50048    0.46002    0.39002    1.000
    Si2917   Si       0.51551    0.47241    0.43090    1.000
    Si2918   Si       0.46670    0.42912    0.39544    1.000
    N2919    N        0.49539    0.46898    0.46823    1.000
    N2920    N        0.50306    0.30545    0.54982    1.000
    Si2921   Si       0.49749    0.28976    0.50901    1.000
    N2922    N        0.49673    0.37263    0.60546    1.000
    Si2923   Si       0.46616    0.32606    0.55891    1.000
    N2924    N        0.46155    0.36778    0.54901    1.000
    Si2925   Si       0.45591    0.37345    0.50534    1.000
    N2926    N        0.48473    0.48658    0.54179    1.000
    Si2927   Si       0.47904    0.40035    0.57439    1.000
    N2928    N        0.47398    0.43674    0.60012    1.000
    N2929    N        0.50777    0.41515    0.54386    1.000
    Si2930   Si       0.49692    0.46844    0.61760    1.000
    Si2931   Si       0.51666    0.45746    0.54894    1.000
    Si2932   Si       0.47429    0.49154    0.49837    1.000
    Si2933   Si       0.48998    0.34581    0.70288    1.000
    N2934    N        0.48846    0.32850    0.66138    1.000
    N2935    N        0.50147    0.26692    0.72023    1.000
    Si2936   Si       0.46747    0.34928    0.62774    1.000
    N2937    N        0.51520    0.25937    0.65261    1.000
    Si2938   Si       0.51842    0.30212    0.64876    1.000
    Si2939   Si       0.47183    0.28881    0.74330    1.000
    N2940    N        0.46050    0.32753    0.73191    1.000
    N2941    N        0.50049    0.47636    0.66116    1.000
    N2942    N        0.48467    0.45081    0.73218    1.000
    Si2943   Si       0.47264    0.46960    0.69456    1.000
    N2944    N        0.48093    0.39074    0.70212    1.000
    Si2945   Si       0.50288    0.41133    0.73269    1.000
    N2946    N        0.49052    0.28471    0.78265    1.000
    Si2947   Si       0.50284    0.37171    0.81152    1.000
    Si2948   Si       0.47985    0.30234    0.83768    1.000
    N2949    N        0.47156    0.34022    0.82104    1.000
    N2950    N        0.50783    0.38548    0.76826    1.000
    Si2951   Si       0.49571    0.47026    0.77060    1.000
    N2952    N        0.47622    0.40372    0.83204    1.000
    N2953    N        0.46399    0.46089    0.80140    1.000
    N2954    N        0.47228    0.30160    0.88260    1.000
    Si2955   Si       0.47682    0.34763    0.97609    1.000
    N2956    N        0.48275    0.36588    0.89718    1.000
    N2957    N        0.50753    0.37422    0.95919    1.000
    N2958    N        0.51878    0.47689    0.90170    1.000
    Si2959   Si       0.46175    0.39815    0.87461    1.000
    N2960    N        0.47303    0.50420    0.95377    1.000
    Si2961   Si       0.51177    0.40907    0.98372    1.000
    N2962    N        0.47384    0.43171    0.98991    1.000
    Si2963   Si       0.47054    0.47389    0.98466    1.000
    N2964    N        0.47927    0.42782    0.90475    1.000
    N2965    N        0.47834    0.62259    0.10062    1.000
    Si2966   Si       0.49348    0.53011    0.11061    1.000
    Si2967   Si       0.50320    0.60158    0.00754    1.000
    N2968    N        0.50967    0.52727    0.06903    1.000
    N2969    N        0.45948    0.60671    0.01763    1.000
    Si2970   Si       0.49360    0.69838    0.05208    1.000
    N2971    N        0.48043    0.68153    0.08835    1.000
    N2972    N        0.47649    0.67674    0.01823    1.000
    Si2973   Si       0.51103    0.64978    0.10024    1.000
    N2974    N        0.46581    0.73255    0.05538    1.000
    Si2975   Si       0.45962    0.72138    0.10277    1.000
    N2976    N        0.50049    0.55221    0.20340    1.000
    N2977    N        0.46955    0.59840    0.16542    1.000
    Si2978   Si       0.50777    0.57767    0.17004    1.000
    N2979    N        0.46450    0.51250    0.24002    1.000
    Si2980   Si       0.50806    0.67444    0.23279    1.000
    Si2981   Si       0.48699    0.75046    0.22798    1.000
    N2982    N        0.48268    0.70763    0.22068    1.000
    N2983    N        0.49662    0.73446    0.12510    1.000
    N2984    N        0.50125    0.58599    0.32369    1.000
    Si2985   Si       0.48147    0.59869    0.36141    1.000
    Si2986   Si       0.47675    0.55017    0.32740    1.000
    N2987    N        0.49941    0.51484    0.33517    1.000
    Si2988   Si       0.47611    0.55360    0.25200    1.000
    N2989    N        0.51967    0.55666    0.26582    1.000
    N2990    N        0.48743    0.64472    0.25699    1.000
    N2991    N        0.49978    0.66808    0.32582    1.000
    N2992    N        0.50807    0.75464    0.26516    1.000
    N2993    N        0.46055    0.75900    0.32532    1.000
    Si2994   Si       0.51922    0.70239    0.35013    1.000
    Si2995   Si       0.51768    0.65425    0.28965    1.000
    Si2996   Si       0.51799    0.61010    0.48919    1.000
    Si2997   Si       0.49169    0.54607    0.44549    1.000
    N2998    N        0.47984    0.53228    0.48734    1.000
    N2999    N        0.50775    0.58710    0.45587    1.000
    N3000    N        0.51851    0.59888    0.38495    1.000
    Si3001   Si       0.49242    0.67572    0.47123    1.000
    Si3002   Si       0.51301    0.75241    0.40356    1.000
    Si3003   Si       0.51020    0.75386    0.47037    1.000
    N3004    N        0.48317    0.75584    0.43440    1.000
    N3005    N        0.49186    0.65010    0.43603    1.000
    N3006    N        0.49456    0.72164    0.38008    1.000
    Si3007   Si       0.48030    0.56333    0.51579    1.000
    Si3008   Si       0.46965    0.51481    0.57096    1.000
    N3009    N        0.49847    0.51094    0.60366    1.000
    N3010    N        0.45986    0.55233    0.55161    1.000
    Si3011   Si       0.48463    0.65485    0.54433    1.000
    N3012    N        0.46803    0.69669    0.55148    1.000
    N3013    N        0.48163    0.73784    0.61435    1.000
    N3014    N        0.48217    0.75263    0.50737    1.000
    N3015    N        0.49868    0.64564    0.50444    1.000
    Si3016   Si       0.48583    0.60827    0.66479    1.000
    N3017    N        0.50512    0.57162    0.68043    1.000
    N3018    N        0.52056    0.63246    0.65399    1.000
    N3019    N        0.48204    0.68407    0.67475    1.000
    Si3020   Si       0.47445    0.73728    0.73841    1.000
    N3021    N        0.51076    0.73294    0.71785    1.000
    Si3022   Si       0.47568    0.66386    0.71370    1.000
    N3023    N        0.51599    0.65925    0.73444    1.000
    N3024    N        0.48781    0.57761    0.80881    1.000
    Si3025   Si       0.50646    0.53745    0.80413    1.000
    Si3026   Si       0.50460    0.60957    0.83401    1.000
    N3027    N        0.49113    0.51466    0.76904    1.000
    N3028    N        0.49504    0.51304    0.83862    1.000
    N3029    N        0.46670    0.63261    0.84432    1.000
    Si3030   Si       0.51374    0.63103    0.76558    1.000
    N3031    N        0.47063    0.63119    0.77200    1.000
    Si3032   Si       0.48547    0.73368    0.81567    1.000
    N3033    N        0.47230    0.69318    0.81068    1.000
    N3034    N        0.49067    0.75498    0.77746    1.000
    N3035    N        0.51915    0.73250    0.84191    1.000
    Si3036   Si       0.47075    0.54340    0.97516    1.000
    Si3037   Si       0.46983    0.57506    0.90900    1.000
    N3038    N        0.50712    0.56507    0.98463    1.000
    N3039    N        0.48011    0.61441    0.91794    1.000
    N3040    N        0.50391    0.54957    0.90806    1.000
    Si3041   Si       0.51463    0.63562    0.93625    1.000
    Si3042   Si       0.50769    0.51001    0.92526    1.000
    N3043    N        0.46477    0.70081    0.88268    1.000
    N3044    N        0.49709    0.67447    0.93985    1.000
    Si3045   Si       0.50220    0.67644    0.98296    1.000
    Si3046   Si       0.46056    0.68430    0.92134    1.000
    N3047    N        0.48096    0.85244    0.06741    1.000
    N3048    N        0.50298    0.79096    0.08306    1.000
    N3049    N        0.50834    0.77781    0.01160    1.000
    Si3050   Si       0.49685    0.76328    0.05066    1.000
    Si3051   Si       0.47236    0.88259    0.09887    1.000
    N3052    N        0.47537    0.97885    0.09789    1.000
    Si3053   Si       0.48989    0.92038    0.04199    1.000
    N3054    N        0.49613    0.96269    0.03478    1.000
    Si3055   Si       0.49140    0.99632    0.06032    1.000
    N3056    N        0.48119    0.90358    0.00235    1.000
    N3057    N        0.50337    0.90375    0.12079    1.000
    Si3058   Si       0.50130    0.77930    0.12492    1.000
    N3059    N        0.51234    0.77307    0.20042    1.000
    N3060    N        0.46939    0.79991    0.14580    1.000
    Si3061   Si       0.50816    0.81664    0.20343    1.000
    N3062    N        0.46597    0.82806    0.20368    1.000
    Si3063   Si       0.49852    0.99515    0.13260    1.000
    Si3064   Si       0.48393    0.92544    0.22646    1.000
    N3065    N        0.48081    0.92858    0.18257    1.000
    N3066    N        0.47564    0.00524    0.17028    1.000
    Si3067   Si       0.51305    0.92879    0.15415    1.000
    Si3068   Si       0.49900    0.82977    0.27896    1.000
    N3069    N        0.49196    0.87172    0.28602    1.000
    N3070    N        0.51118    0.80636    0.31321    1.000
    Si3071   Si       0.50917    0.81605    0.35438    1.000
    Si3072   Si       0.49847    0.76529    0.30561    1.000
    N3073    N        0.46736    0.81631    0.36614    1.000
    Si3074   Si       0.48929    0.94440    0.32464    1.000
    N3075    N        0.49404    0.98674    0.31649    1.000
    Si3076   Si       0.49699    0.99502    0.27387    1.000
    N3077    N        0.48725    0.93411    0.36682    1.000
    N3078    N        0.48696    0.96334    0.24653    1.000
    N3079    N        0.46779    0.85782    0.48295    1.000
    Si3080   Si       0.48791    0.83181    0.45462    1.000
    Si3081   Si       0.51179    0.87360    0.39729    1.000
    N3082    N        0.50812    0.80007    0.47818    1.000
    N3083    N        0.46819    0.87901    0.39738    1.000
    N3084    N        0.50634    0.97344    0.42175    1.000
    Si3085   Si       0.51958    0.94336    0.39298    1.000
    N3086    N        0.51054    0.91723    0.48063    1.000
    Si3087   Si       0.46461    0.98396    0.42075    1.000
    Si3088   Si       0.47370    0.89962    0.49036    1.000
    N3089    N        0.52362    0.99523    0.48254    1.000
    Si3090   Si       0.48734    0.85279    0.55222    1.000
    Si3091   Si       0.47939    0.79553    0.51245    1.000
    N3092    N        0.50378    0.81424    0.54206    1.000
    N3093    N        0.50351    0.80567    0.61153    1.000
    Si3094   Si       0.46440    0.82454    0.61643    1.000
    Si3095   Si       0.50582    0.88545    0.61306    1.000
    N3096    N        0.47496    0.89412    0.53668    1.000
    N3097    N        0.50008    0.92558    0.59466    1.000
    N3098    N        0.50304    0.95467    0.53575    1.000
    Si3099   Si       0.49499    0.96264    0.61391    1.000
    Si3100   Si       0.47485    0.98346    0.54919    1.000
    N3101    N        0.48302    0.99559    0.58933    1.000
    Si3102   Si       0.51001    0.91508    0.55305    1.000
    N3103    N        0.48347    0.81460    0.74469    1.000
    N3104    N        0.47943    0.79255    0.67142    1.000
    N3105    N        0.47850    0.86032    0.63687    1.000
    Si3106   Si       0.51675    0.79780    0.65223    1.000
    N3107    N        0.46040    0.94379    0.71145    1.000
    N3108    N        0.49624    0.88505    0.69527    1.000
    Si3109   Si       0.49873    0.92232    0.71616    1.000
    N3110    N        0.46898    0.95842    0.65007    1.000
    Si3111   Si       0.50381    0.97418    0.67275    1.000
    N3112    N        0.49844    0.81356    0.81430    1.000
    Si3113   Si       0.47552    0.79755    0.78226    1.000
    Si3114   Si       0.49287    0.92728    0.79140    1.000
    N3115    N        0.49451    0.89512    0.82322    1.000
    N3116    N        0.50298    0.96243    0.81861    1.000
    Si3117   Si       0.49775    0.95914    0.86164    1.000
    Si3118   Si       0.49163    0.99997    0.80168    1.000
    N3119    N        0.48542    0.99089    0.75768    1.000
    N3120    N        0.51615    0.92685    0.75460    1.000
    N3121    N        0.48574    0.83833    0.98946    1.000
    Si3122   Si       0.47076    0.79857    0.92197    1.000
    N3123    N        0.50763    0.82303    0.92369    1.000
    Si3124   Si       0.51199    0.85018    0.95657    1.000
    N3125    N        0.48719    0.76565    0.89770    1.000
    N3126    N        0.46413    0.87790    0.88328    1.000
    Si3127   Si       0.47220    0.79753    0.99619    1.000
    N3128    N        0.48963    0.00212    0.87353    1.000
    N3129    N        0.49363    0.96097    0.96410    1.000
    Si3130   Si       0.50568    0.92057    0.97071    1.000
    Si3131   Si       0.50301    0.89275    0.89972    1.000
    N3132    N        0.51005    0.88972    0.94219    1.000
    N3133    N        0.53726    0.08445    0.08393    1.000
    Si3134   Si       0.53455    0.06098    0.04647    1.000
    N3135    N        0.57115    0.05680    0.02404    1.000
    Si3136   Si       0.52991    0.12506    0.09135    1.000
    N3137    N        0.52778    0.01913    0.05527    1.000
    N3138    N        0.55067    0.11579    0.00422    1.000
    Si3139   Si       0.54861    0.05461    0.11456    1.000
    N3140    N        0.57838    0.02383    0.10849    1.000
    Si3141   Si       0.56225    0.15327    0.02270    1.000
    N3142    N        0.53830    0.18723    0.00913    1.000
    Si3143   Si       0.55399    0.22601    0.01503    1.000
    N3144    N        0.55134    0.15211    0.06478    1.000
    Si3145   Si       0.54567    0.23299    0.08409    1.000
    N3146    N        0.56169    0.20095    0.11141    1.000
    N3147    N        0.52146    0.25693    0.00033    1.000
    N3148    N        0.57501    0.23161    0.05350    1.000
    N3149    N        0.52972    0.04988    0.19367    1.000
    Si3150   Si       0.53746    0.05048    0.23591    1.000
    N3151    N        0.56536    0.07611    0.14842    1.000
    Si3152   Si       0.57484    0.05022    0.18241    1.000
    Si3153   Si       0.54660    0.22646    0.14479    1.000
    Si3154   Si       0.56734    0.14893    0.21965    1.000
    Si3155   Si       0.54600    0.22252    0.21378    1.000
    N3156    N        0.54952    0.13987    0.12623    1.000
    N3157    N        0.57147    0.22824    0.17921    1.000
    N3158    N        0.53528    0.17903    0.21660    1.000
    N3159    N        0.53300    0.11992    0.30823    1.000
    Si3160   Si       0.57349    0.12264    0.28905    1.000
    N3161    N        0.53268    0.01274    0.25846    1.000
    N3162    N        0.54696    0.09990    0.37027    1.000
    N3163    N        0.52525    0.02589    0.36907    1.000
    N3164    N        0.55697    0.12130    0.25059    1.000
    Si3165   Si       0.52396    0.13129    0.34930    1.000
    N3166    N        0.56436    0.22885    0.25381    1.000
    Si3167   Si       0.52820    0.21068    0.34772    1.000
    N3168    N        0.54339    0.16905    0.35235    1.000
    N3169    N        0.55767    0.23421    0.32314    1.000
    Si3170   Si       0.55333    0.25683    0.28467    1.000
    Si3171   Si       0.53107    0.06330    0.38798    1.000
    N3172    N        0.54287    0.07204    0.42969    1.000
    N3173    N        0.56927    0.10810    0.48532    1.000
    Si3174   Si       0.52787    0.10491    0.49909    1.000
    N3175    N        0.53433    0.22705    0.38660    1.000
    Si3176   Si       0.56959    0.20622    0.47935    1.000
    N3177    N        0.57726    0.18076    0.44568    1.000
    N3178    N        0.54063    0.23360    0.45918    1.000
    N3179    N        0.55962    0.09833    0.59681    1.000
    Si3180   Si       0.53888    0.06051    0.59075    1.000
    N3181    N        0.55404    0.02116    0.57475    1.000
    N3182    N        0.52435    0.06242    0.50723    1.000
    Si3183   Si       0.55174    0.00673    0.61689    1.000
    Si3184   Si       0.54067    0.13824    0.60770    1.000
    Si3185   Si       0.54047    0.21241    0.60332    1.000
    N3186    N        0.55542    0.17432    0.58549    1.000
    N3187    N        0.52913    0.24754    0.57715    1.000
    N3188    N        0.55295    0.18616    0.51624    1.000
    N3189    N        0.53026    0.04487    0.73308    1.000
    N3190    N        0.53256    0.04489    0.63115    1.000
    Si3191   Si       0.56955    0.05557    0.72363    1.000
    N3192    N        0.58393    0.09513    0.73296    1.000
    Si3193   Si       0.51999    0.22633    0.72155    1.000
    N3194    N        0.56733    0.22832    0.63513    1.000
    N3195    N        0.54284    0.14853    0.71438    1.000
    N3196    N        0.54994    0.15178    0.64752    1.000
    Si3197   Si       0.52193    0.16148    0.67867    1.000
    N3198    N        0.55860    0.24147    0.70761    1.000
    Si3199   Si       0.55317    0.09805    0.83976    1.000
    N3200    N        0.56216    0.08314    0.80029    1.000
    N3201    N        0.52990    0.02190    0.79479    1.000
    Si3202   Si       0.57026    0.04093    0.79367    1.000
    N3203    N        0.57094    0.14986    0.77638    1.000
    N3204    N        0.54322    0.24435    0.81588    1.000
    Si3205   Si       0.56263    0.17311    0.84614    1.000
    Si3206   Si       0.53206    0.15909    0.75506    1.000
    N3207    N        0.52352    0.17820    0.82238    1.000
    N3208    N        0.52647    0.20264    0.75760    1.000
    N3209    N        0.56832    0.07624    0.87393    1.000
    N3210    N        0.56867    0.06174    0.95302    1.000
    N3211    N        0.54319    0.11793    0.92108    1.000
    Si3212   Si       0.55237    0.07495    0.91483    1.000
    Si3213   Si       0.56625    0.01967    0.95895    1.000
    Si3214   Si       0.57681    0.08379    0.99118    1.000
    N3215    N        0.55122    0.18365    0.88813    1.000
    Si3216   Si       0.56927    0.15227    0.91256    1.000
    Si3217   Si       0.53107    0.17982    0.96541    1.000
    N3218    N        0.57021    0.16828    0.95222    1.000
    Si3219   Si       0.55019    0.35529    0.02575    1.000
    Si3220   Si       0.53604    0.35159    0.09866    1.000
    N3221    N        0.52766    0.33745    0.05739    1.000
    N3222    N        0.54676    0.26032    0.11627    1.000
    N3223    N        0.54674    0.39372    0.09130    1.000
    Si3224   Si       0.54531    0.41895    0.05549    1.000
    N3225    N        0.53518    0.39791    0.01969    1.000
    N3226    N        0.52205    0.45325    0.06724    1.000
    N3227    N        0.56322    0.33111    0.12818    1.000
    Si3228   Si       0.52596    0.35453    0.23278    1.000
    N3229    N        0.53435    0.35666    0.18953    1.000
    Si3230   Si       0.56997    0.35047    0.16746    1.000
    N3231    N        0.51635    0.31233    0.23595    1.000
    N3232    N        0.53214    0.49419    0.23362    1.000
    Si3233   Si       0.55666    0.41585    0.12649    1.000
    Si3234   Si       0.56551    0.47138    0.21373    1.000
    N3235    N        0.55366    0.47813    0.17303    1.000
    N3236    N        0.51838    0.43267    0.14097    1.000
    N3237    N        0.52696    0.35074    0.36578    1.000
    N3238    N        0.56267    0.36717    0.25418    1.000
    N3239    N        0.57265    0.29685    0.28223    1.000
    Si3240   Si       0.54934    0.38069    0.34065    1.000
    N3241    N        0.56500    0.44103    0.28003    1.000
    Si3242   Si       0.52585    0.43484    0.29578    1.000
    N3243    N        0.52467    0.45794    0.33325    1.000
    Si3244   Si       0.54216    0.50108    0.33295    1.000
    N3245    N        0.52427    0.39245    0.30754    1.000
    N3246    N        0.56874    0.50825    0.30030    1.000
    N3247    N        0.56585    0.41363    0.36619    1.000
    Si3248   Si       0.54830    0.33826    0.40180    1.000
    Si3249   Si       0.53684    0.26949    0.38323    1.000
    N3250    N        0.53715    0.36977    0.43097    1.000
    N3251    N        0.53718    0.29718    0.41737    1.000
    Si3252   Si       0.54982    0.27848    0.45659    1.000
    N3253    N        0.53952    0.29658    0.49519    1.000
    Si3254   Si       0.55744    0.40588    0.44193    1.000
    Si3255   Si       0.54276    0.45102    0.37432    1.000
    N3256    N        0.55591    0.49423    0.37370    1.000
    N3257    N        0.54781    0.41449    0.48352    1.000
    N3258    N        0.55277    0.44926    0.42432    1.000
    N3259    N        0.55107    0.36131    0.52958    1.000
    Si3260   Si       0.53488    0.28962    0.57646    1.000
    Si3261   Si       0.56561    0.32141    0.51978    1.000
    N3262    N        0.53503    0.31589    0.61211    1.000
    Si3263   Si       0.53778    0.36152    0.61440    1.000
    N3264    N        0.57217    0.29917    0.55811    1.000
    Si3265   Si       0.52336    0.39081    0.51211    1.000
    N3266    N        0.56073    0.39123    0.59374    1.000
    N3267    N        0.53341    0.46113    0.58966    1.000
    Si3268   Si       0.56256    0.43286    0.60625    1.000
    N3269    N        0.55145    0.47128    0.52399    1.000
    Si3270   Si       0.53941    0.50501    0.59847    1.000
    Si3271   Si       0.57484    0.44160    0.50519    1.000
    Si3272   Si       0.57494    0.50815    0.53138    1.000
    Si3273   Si       0.53879    0.29334    0.71833    1.000
    N3274    N        0.55298    0.30044    0.67596    1.000
    N3275    N        0.55142    0.36604    0.65440    1.000
    N3276    N        0.52659    0.33516    0.72374    1.000
    Si3277   Si       0.56144    0.25786    0.66722    1.000
    Si3278   Si       0.55986    0.40306    0.67583    1.000
    Si3279   Si       0.54472    0.47907    0.66517    1.000
    N3280    N        0.54056    0.41805    0.71256    1.000
    N3281    N        0.56253    0.48353    0.70366    1.000
    Si3282   Si       0.55811    0.45257    0.73378    1.000
    N3283    N        0.55431    0.43782    0.64898    1.000
    N3284    N        0.56402    0.50478    0.63757    1.000
    Si3285   Si       0.53298    0.29133    0.79221    1.000
    N3286    N        0.53306    0.37210    0.84363    1.000
    N3287    N        0.53930    0.33536    0.79114    1.000
    Si3288   Si       0.54666    0.33267    0.85741    1.000
    Si3289   Si       0.54342    0.36022    0.75504    1.000
    N3290    N        0.55779    0.28091    0.75636    1.000
    N3291    N        0.52386    0.29719    0.83973    1.000
    Si3292   Si       0.53653    0.25797    0.85674    1.000
    N3293    N        0.53714    0.45847    0.77206    1.000
    N3294    N        0.54195    0.45069    0.84378    1.000
    Si3295   Si       0.55743    0.40848    0.84786    1.000
    Si3296   Si       0.56365    0.45444    0.80528    1.000
    Si3297   Si       0.52482    0.48836    0.86121    1.000
    N3298    N        0.57804    0.41403    0.80779    1.000
    N3299    N        0.52829    0.28413    0.94449    1.000
    N3300    N        0.56756    0.27214    0.88239    1.000
    N3301    N        0.54231    0.33415    0.90103    1.000
    Si3302   Si       0.55949    0.29655    0.91723    1.000
    Si3303   Si       0.52676    0.29856    0.98611    1.000
    N3304    N        0.55577    0.33019    0.99052    1.000
    Si3305   Si       0.51973    0.36955    0.91655    1.000
    N3306    N        0.52794    0.44329    0.96067    1.000
    Si3307   Si       0.54144    0.48021    0.98007    1.000
    N3308    N        0.54916    0.40307    0.90757    1.000
    Si3309   Si       0.51955    0.43518    0.91802    1.000
    N3310    N        0.55838    0.53653    0.01704    1.000
    Si3311   Si       0.53812    0.55438    0.05191    1.000
    Si3312   Si       0.55399    0.62477    0.06270    1.000
    N3313    N        0.54294    0.61632    0.10284    1.000
    N3314    N        0.56752    0.56053    0.08167    1.000
    N3315    N        0.53050    0.59716    0.04034    1.000
    Si3316   Si       0.55383    0.57900    0.11951    1.000
    N3317    N        0.53592    0.66488    0.06233    1.000
    N3318    N        0.56568    0.70946    0.10494    1.000
    Si3319   Si       0.55884    0.70346    0.06330    1.000
    Si3320   Si       0.53745    0.74185    0.00721    1.000
    N3321    N        0.52587    0.73031    0.05021    1.000
    N3322    N        0.54182    0.60515    0.17497    1.000
    Si3323   Si       0.53384    0.53706    0.23017    1.000
    N3324    N        0.56914    0.54800    0.20856    1.000
    N3325    N        0.51866    0.55743    0.13331    1.000
    Si3326   Si       0.53073    0.70910    0.13353    1.000
    Si3327   Si       0.54850    0.64730    0.16431    1.000
    N3328    N        0.55808    0.72203    0.16615    1.000
    N3329    N        0.52179    0.66852    0.13878    1.000
    N3330    N        0.53920    0.66231    0.20693    1.000
    Si3331   Si       0.53421    0.58518    0.29544    1.000
    N3332    N        0.56382    0.56792    0.32244    1.000
    N3333    N        0.55108    0.62403    0.29017    1.000
    Si3334   Si       0.55760    0.58522    0.36220    1.000
    Si3335   Si       0.54253    0.73026    0.27803    1.000
    N3336    N        0.53114    0.68961    0.26795    1.000
    N3337    N        0.52734    0.73229    0.31931    1.000
    N3338    N        0.55449    0.68655    0.36867    1.000
    N3339    N        0.56150    0.61205    0.48683    1.000
    Si3340   Si       0.56018    0.52013    0.40823    1.000
    Si3341   Si       0.51926    0.61726    0.42413    1.000
    N3342    N        0.57449    0.55742    0.39190    1.000
    N3343    N        0.51942    0.51696    0.42911    1.000
    N3344    N        0.52074    0.70857    0.47549    1.000
    N3345    N        0.55868    0.63587    0.42668    1.000
    N3346    N        0.54396    0.75099    0.43527    1.000
    Si3347   Si       0.56347    0.72137    0.47070    1.000
    Si3348   Si       0.57612    0.65456    0.38778    1.000
    N3349    N        0.56088    0.52611    0.56877    1.000
    Si3350   Si       0.56294    0.57937    0.51504    1.000
    N3351    N        0.55742    0.59340    0.61465    1.000
    Si3352   Si       0.54948    0.61928    0.57944    1.000
    Si3353   Si       0.57559    0.56349    0.58660    1.000
    N3354    N        0.51937    0.58183    0.52252    1.000
    Si3355   Si       0.52526    0.73846    0.61385    1.000
    N3356    N        0.56901    0.70506    0.54589    1.000
    Si3357   Si       0.54983    0.68191    0.57612    1.000
    Si3358   Si       0.56385    0.74843    0.54384    1.000
    N3359    N        0.53773    0.69505    0.61793    1.000
    N3360    N        0.52191    0.64975    0.56690    1.000
    N3361    N        0.53643    0.75654    0.57616    1.000
    N3362    N        0.55446    0.76029    0.50369    1.000
    Si3363   Si       0.53835    0.57954    0.70698    1.000
    Si3364   Si       0.56046    0.61804    0.64982    1.000
    N3365    N        0.56087    0.54528    0.72864    1.000
    N3366    N        0.57196    0.59477    0.68484    1.000
    Si3367   Si       0.52120    0.67593    0.65469    1.000
    Si3368   Si       0.53339    0.69789    0.72848    1.000
    Si3369   Si       0.54257    0.75021    0.69389    1.000
    N3370    N        0.53339    0.75784    0.65183    1.000
    N3371    N        0.54922    0.69235    0.68574    1.000
    N3372    N        0.55060    0.54630    0.80212    1.000
    Si3373   Si       0.56175    0.56736    0.76703    1.000
    N3374    N        0.53272    0.59434    0.86254    1.000
    N3375    N        0.55743    0.51742    0.86731    1.000
    N3376    N        0.52996    0.59380    0.74919    1.000
    N3377    N        0.52972    0.63379    0.80582    1.000
    Si3378   Si       0.54987    0.70502    0.85812    1.000
    Si3379   Si       0.56637    0.65073    0.82465    1.000
    N3380    N        0.55272    0.71684    0.76223    1.000
    N3381    N        0.53969    0.66327    0.86573    1.000
    N3382    N        0.57544    0.69449    0.82474    1.000
    Si3383   Si       0.53796    0.75863    0.76155    1.000
    Si3384   Si       0.55647    0.62634    0.87868    1.000
    N3385    N        0.54225    0.51455    0.95122    1.000
    N3386    N        0.55325    0.62619    0.92181    1.000
    Si3387   Si       0.54907    0.55048    0.97763    1.000
    Si3388   Si       0.53899    0.55545    0.88209    1.000
    N3389    N        0.57500    0.56245    0.90528    1.000
    N3390    N        0.51637    0.63312    0.98133    1.000
    Si3391   Si       0.52510    0.75771    0.87796    1.000
    N3392    N        0.55759    0.73026    0.89254    1.000
    N3393    N        0.53598    0.70337    0.98715    1.000
    Si3394   Si       0.57773    0.68961    0.99004    1.000
    N3395    N        0.55330    0.82376    0.04286    1.000
    N3396    N        0.53741    0.84841    0.10602    1.000
    Si3397   Si       0.54526    0.80297    0.00489    1.000
    N3398    N        0.57036    0.76876    0.99667    1.000
    Si3399   Si       0.51964    0.82937    0.07041    1.000
    N3400    N        0.52968    0.90783    0.05860    1.000
    Si3401   Si       0.53708    0.89106    0.09798    1.000
    Si3402   Si       0.55843    0.92644    0.03315    1.000
    N3403    N        0.56905    0.96603    0.04869    1.000
    Si3404   Si       0.56782    0.00819    0.03163    1.000
    Si3405   Si       0.51798    0.96945    0.99771    1.000
    Si3406   Si       0.54890    0.76190    0.17750    1.000
    N3407    N        0.53109    0.84393    0.17770    1.000
    Si3408   Si       0.55325    0.82845    0.14354    1.000
    N3409    N        0.54120    0.78637    0.14160    1.000
    N3410    N        0.52536    0.82767    0.24320    1.000
    Si3411   Si       0.54223    0.88111    0.19796    1.000
    N3412    N        0.55064    0.90797    0.16663    1.000
    N3413    N        0.52142    0.90187    0.23183    1.000
    Si3414   Si       0.57075    0.98786    0.13613    1.000
    N3415    N        0.53078    0.96902    0.14193    1.000
    N3416    N        0.56388    0.87362    0.27894    1.000
    N3417    N        0.52641    0.85408    0.36269    1.000
    Si3418   Si       0.57011    0.85532    0.35586    1.000
    Si3419   Si       0.56934    0.77872    0.35894    1.000
    N3420    N        0.57881    0.81576    0.33583    1.000
    Si3421   Si       0.57020    0.84374    0.24855    1.000
    N3422    N        0.52667    0.92909    0.30603    1.000
    Si3423   Si       0.56269    0.93222    0.33058    1.000
    Si3424   Si       0.52516    0.89829    0.27630    1.000
    N3425    N        0.55038    0.95795    0.36592    1.000
    Si3426   Si       0.57449    0.00686    0.25756    1.000
    N3427    N        0.52854    0.78101    0.37445    1.000
    Si3428   Si       0.56340    0.84640    0.43504    1.000
    N3429    N        0.56821    0.87743    0.46539    1.000
    N3430    N        0.57421    0.81002    0.45425    1.000
    N3431    N        0.51889    0.84853    0.43137    1.000
    Si3432   Si       0.55041    0.80458    0.49417    1.000
    N3433    N        0.53377    0.90815    0.41246    1.000
    Si3434   Si       0.55857    0.99976    0.37635    1.000
    Si3435   Si       0.54169    0.98357    0.44390    1.000
    Si3436   Si       0.54326    0.91012    0.45387    1.000
    N3437    N        0.56263    0.94800    0.46222    1.000
    N3438    N        0.56754    0.00647    0.41770    1.000
    Si3439   Si       0.56220    0.85558    0.56050    1.000
    N3440    N        0.56724    0.81740    0.58144    1.000
    N3441    N        0.56470    0.83960    0.51914    1.000
    Si3442   Si       0.52694    0.79932    0.57611    1.000
    N3443    N        0.52091    0.86784    0.57598    1.000
    N3444    N        0.57688    0.97368    0.51623    1.000
    N3445    N        0.54906    0.91532    0.53423    1.000
    Si3446   Si       0.53661    0.95240    0.50327    1.000
    Si3447   Si       0.53394    0.87031    0.67997    1.000
    N3448    N        0.55066    0.78135    0.72683    1.000
    N3449    N        0.54373    0.82724    0.66844    1.000
    Si3450   Si       0.55719    0.93990    0.73547    1.000
    N3451    N        0.52847    0.97799    0.63785    1.000
    N3452    N        0.54105    0.88958    0.64018    1.000
    N3453    N        0.52968    0.94751    0.69626    1.000
    Si3454   Si       0.56735    0.92989    0.67530    1.000
    N3455    N        0.56780    0.89019    0.70026    1.000
    N3456    N        0.56062    0.77963    0.79639    1.000
    N3457    N        0.55663    0.84743    0.81826    1.000
    Si3458   Si       0.54081    0.80701    0.82350    1.000
    N3459    N        0.54060    0.79662    0.86498    1.000
    Si3460   Si       0.53479    0.87944    0.83727    1.000
    N3461    N        0.56402    0.91273    0.83367    1.000
    Si3462   Si       0.52613    0.00797    0.75405    1.000
    N3463    N        0.55735    0.98109    0.74801    1.000
    N3464    N        0.57077    0.97617    0.86281    1.000
    N3465    N        0.54730    0.83418    0.97377    1.000
    N3466    N        0.53318    0.86719    0.87874    1.000
    Si3467   Si       0.54103    0.82780    0.89502    1.000
    N3468    N        0.54116    0.93201    0.99355    1.000
    Si3469   Si       0.56089    0.93316    0.87251    1.000
    N3470    N        0.54625    0.00160    0.99177    1.000
    N3471    N        0.54374    0.00479    0.92244    1.000
    N3472    N        0.51954    0.92878    0.88134    1.000
    Si3473   Si       0.62167    0.02208    0.10155    1.000
    N3474    N        0.63556    0.04859    0.07027    1.000
    N3475    N        0.61843    0.10095    0.99650    1.000
    N3476    N        0.60930    0.13466    0.11840    1.000
    N3477    N        0.60297    0.16211    0.01214    1.000
    Si3478   Si       0.61666    0.22007    0.06301    1.000
    N3479    N        0.61616    0.17883    0.07850    1.000
    Si3480   Si       0.58021    0.16355    0.09879    1.000
    Si3481   Si       0.63613    0.13426    0.01873    1.000
    N3482    N        0.58086    0.04193    0.23151    1.000
    N3483    N        0.62014    0.06542    0.18442    1.000
    Si3484   Si       0.62441    0.04140    0.21996    1.000
    Si3485   Si       0.58103    0.11692    0.14729    1.000
    Si3486   Si       0.61326    0.23813    0.17308    1.000
    Si3487   Si       0.62006    0.16230    0.19291    1.000
    N3488    N        0.63320    0.20159    0.17608    1.000
    N3489    N        0.58778    0.13303    0.18568    1.000
    N3490    N        0.60158    0.17574    0.22902    1.000
    N3491    N        0.60188    0.09170    0.30111    1.000
    Si3492   Si       0.62142    0.05430    0.28992    1.000
    Si3493   Si       0.62781    0.03959    0.36131    1.000
    N3494    N        0.60375    0.01540    0.28829    1.000
    Si3495   Si       0.62809    0.10236    0.33570    1.000
    N3496    N        0.59418    0.01173    0.35545    1.000
    N3497    N        0.61385    0.08019    0.37220    1.000
    N3498    N        0.60950    0.13889    0.35604    1.000
    N3499    N        0.60962    0.20419    0.35180    1.000
    Si3500   Si       0.59481    0.24520    0.34380    1.000
    Si3501   Si       0.59332    0.19893    0.26531    1.000
    N3502    N        0.63106    0.20988    0.28493    1.000
    Si3503   Si       0.58452    0.17211    0.33699    1.000
    N3504    N        0.58056    0.16656    0.29473    1.000
    N3505    N        0.59246    0.11920    0.42359    1.000
    Si3506   Si       0.61023    0.01960    0.42589    1.000
    N3507    N        0.60913    0.05461    0.44972    1.000
    Si3508   Si       0.58688    0.11171    0.38209    1.000
    Si3509   Si       0.57814    0.08499    0.44985    1.000
    N3510    N        0.60895    0.21712    0.49382    1.000
    N3511    N        0.62937    0.14057    0.47992    1.000
    Si3512   Si       0.60964    0.15543    0.44220    1.000
    Si3513   Si       0.63255    0.17287    0.37481    1.000
    Si3514   Si       0.59982    0.11232    0.58494    1.000
    N3515    N        0.61768    0.02013    0.54571    1.000
    Si3516   Si       0.60520    0.11708    0.50723    1.000
    N3517    N        0.62545    0.07915    0.58815    1.000
    N3518    N        0.62388    0.07934    0.51188    1.000
    N3519    N        0.59365    0.12895    0.54599    1.000
    Si3520   Si       0.63254    0.06120    0.54994    1.000
    N3521    N        0.61310    0.14586    0.60992    1.000
    N3522    N        0.62311    0.18547    0.55270    1.000
    Si3523   Si       0.58112    0.17208    0.54886    1.000
    N3524    N        0.63304    0.22148    0.60784    1.000
    N3525    N        0.62102    0.05777    0.65665    1.000
    N3526    N        0.60502    0.12499    0.67621    1.000
    Si3527   Si       0.60652    0.01762    0.66323    1.000
    N3528    N        0.58355    0.02177    0.69888    1.000
    Si3529   Si       0.63483    0.09250    0.67726    1.000
    Si3530   Si       0.59321    0.15717    0.64815    1.000
    Si3531   Si       0.60822    0.22590    0.64275    1.000
    Si3532   Si       0.58390    0.13435    0.71384    1.000
    N3533    N        0.61326    0.19072    0.66638    1.000
    N3534    N        0.61326    0.16322    0.72960    1.000
    Si3535   Si       0.58613    0.25023    0.74036    1.000
    N3536    N        0.59786    0.03194    0.82625    1.000
    N3537    N        0.59612    0.03893    0.75675    1.000
    N3538    N        0.62447    0.10632    0.78272    1.000
    Si3539   Si       0.61821    0.12458    0.86240    1.000
    Si3540   Si       0.60440    0.05347    0.86516    1.000
    Si3541   Si       0.62762    0.07062    0.75093    1.000
    Si3542   Si       0.58263    0.10901    0.77449    1.000
    N3543    N        0.58002    0.13185    0.84516    1.000
    Si3544   Si       0.60599    0.17856    0.76899    1.000
    N3545    N        0.59272    0.19905    0.83260    1.000
    N3546    N        0.59658    0.22146    0.77078    1.000
    Si3547   Si       0.58353    0.23385    0.80977    1.000
    N3548    N        0.60653    0.02437    0.89519    1.000
    N3549    N        0.61226    0.14220    0.90280    1.000
    Si3550   Si       0.60132    0.18692    0.97443    1.000
    N3551    N        0.58587    0.22718    0.98588    1.000
    Si3552   Si       0.61727    0.25404    0.99844    1.000
    N3553    N        0.60974    0.29819    0.08794    1.000
    Si3554   Si       0.61100    0.31803    0.05008    1.000
    N3555    N        0.60247    0.29126    0.01390    1.000
    N3556    N        0.59012    0.35558    0.04180    1.000
    Si3557   Si       0.57974    0.29087    0.11852    1.000
    Si3558   Si       0.60330    0.46195    0.07971    1.000
    Si3559   Si       0.61076    0.39407    0.04963    1.000
    N3560    N        0.59795    0.49802    0.05698    1.000
    N3561    N        0.58758    0.43010    0.05251    1.000
    N3562    N        0.57959    0.45118    0.11569    1.000
    N3563    N        0.63281    0.39302    0.08566    1.000
    Si3564   Si       0.59389    0.51117    0.01669    1.000
    N3565    N        0.60903    0.27206    0.14514    1.000
    N3566    N        0.60082    0.32907    0.18941    1.000
    Si3567   Si       0.62389    0.35034    0.22018    1.000
    Si3568   Si       0.62771    0.30123    0.17478    1.000
    N3569    N        0.63410    0.26529    0.20157    1.000
    N3570    N        0.62183    0.44691    0.16403    1.000
    N3571    N        0.61290    0.50608    0.17963    1.000
    N3572    N        0.57817    0.39117    0.15444    1.000
    Si3573   Si       0.59106    0.47979    0.14717    1.000
    Si3574   Si       0.60004    0.41471    0.18328    1.000
    N3575    N        0.62843    0.39024    0.20537    1.000
    N3576    N        0.59744    0.48773    0.23821    1.000
    N3577    N        0.57239    0.42734    0.21505    1.000
    Si3578   Si       0.61112    0.34777    0.35274    1.000
    N3579    N        0.62071    0.34741    0.26405    1.000
    N3580    N        0.58084    0.35504    0.32419    1.000
    Si3581   Si       0.58321    0.33784    0.28191    1.000
    N3582    N        0.62320    0.42118    0.26325    1.000
    Si3583   Si       0.59270    0.47576    0.28039    1.000
    N3584    N        0.62557    0.46979    0.30690    1.000
    Si3585   Si       0.58187    0.40953    0.25381    1.000
    N3586    N        0.59217    0.28640    0.44672    1.000
    N3587    N        0.59265    0.33411    0.39248    1.000
    Si3588   Si       0.62419    0.30895    0.46665    1.000
    Si3589   Si       0.60215    0.28989    0.40604    1.000
    Si3590   Si       0.62015    0.36160    0.41542    1.000
    N3591    N        0.58114    0.27096    0.37440    1.000
    N3592    N        0.63274    0.38108    0.37739    1.000
    N3593    N        0.59719    0.39575    0.42782    1.000
    N3594    N        0.62201    0.44913    0.40372    1.000
    Si3595   Si       0.59465    0.46206    0.43491    1.000
    N3596    N        0.60500    0.44663    0.47282    1.000
    Si3597   Si       0.60302    0.41359    0.38772    1.000
    N3598    N        0.58934    0.50583    0.43903    1.000
    N3599    N        0.61250    0.35629    0.56172    1.000
    Si3600   Si       0.60395    0.31764    0.58344    1.000
    N3601    N        0.60622    0.32563    0.50197    1.000
    Si3602   Si       0.63511    0.34884    0.52369    1.000
    Si3603   Si       0.58089    0.38415    0.55393    1.000
    N3604    N        0.59374    0.42133    0.53761    1.000
    N3605    N        0.61499    0.49009    0.53866    1.000
    N3606    N        0.60117    0.44752    0.60058    1.000
    Si3607   Si       0.61918    0.45153    0.56036    1.000
    N3608    N        0.60736    0.33057    0.69344    1.000
    Si3609   Si       0.62798    0.29118    0.69186    1.000
    N3610    N        0.60641    0.26410    0.66371    1.000
    Si3611   Si       0.61028    0.36866    0.71489    1.000
    N3612    N        0.60534    0.33194    0.62556    1.000
    N3613    N        0.62563    0.26690    0.72809    1.000
    Si3614   Si       0.57800    0.33125    0.65975    1.000
    N3615    N        0.60067    0.40042    0.68645    1.000
    N3616    N        0.58949    0.32530    0.85514    1.000
    Si3617   Si       0.60311    0.28347    0.86049    1.000
    N3618    N        0.61134    0.26641    0.82127    1.000
    N3619    N        0.58557    0.37270    0.75057    1.000
    Si3620   Si       0.61167    0.35996    0.86748    1.000
    Si3621   Si       0.60096    0.41158    0.77037    1.000
    Si3622   Si       0.61627    0.48488    0.77030    1.000
    N3623    N        0.59053    0.48827    0.80549    1.000
    N3624    N        0.59847    0.40210    0.86557    1.000
    N3625    N        0.59783    0.44927    0.75129    1.000
    N3626    N        0.61416    0.36520    0.91184    1.000
    N3627    N        0.59683    0.30078    0.93833    1.000
    Si3628   Si       0.59573    0.31775    0.97963    1.000
    N3629    N        0.63105    0.34246    0.97411    1.000
    N3630    N        0.63555    0.27567    0.88751    1.000
    N3631    N        0.60992    0.49793    0.91982    1.000
    Si3632   Si       0.61054    0.47175    0.95238    1.000
    N3633    N        0.58457    0.48052    0.98574    1.000
    Si3634   Si       0.59237    0.40339    0.91176    1.000
    N3635    N        0.60435    0.42861    0.94418    1.000
    Si3636   Si       0.59902    0.53196    0.08370    1.000
    N3637    N        0.62890    0.53463    0.00569    1.000
    N3638    N        0.59461    0.63084    0.05661    1.000
    N3639    N        0.63211    0.55537    0.07312    1.000
    N3640    N        0.60070    0.51173    0.12081    1.000
    Si3641   Si       0.61961    0.63958    0.02357    1.000
    N3642    N        0.58672    0.70556    0.03094    1.000
    Si3643   Si       0.63059    0.71648    0.03679    1.000
    N3644    N        0.59092    0.61258    0.22390    1.000
    Si3645   Si       0.61588    0.53905    0.15219    1.000
    Si3646   Si       0.61074    0.52746    0.22023    1.000
    N3647    N        0.58797    0.57297    0.14701    1.000
    N3648    N        0.62924    0.56597    0.19318    1.000
    Si3649   Si       0.58035    0.58648    0.18993    1.000
    N3650    N        0.60952    0.75481    0.13617    1.000
    Si3651   Si       0.59396    0.71497    0.13956    1.000
    N3652    N        0.59171    0.65572    0.17526    1.000
    Si3653   Si       0.57985    0.65348    0.21579    1.000
    Si3654   Si       0.63480    0.66183    0.16758    1.000
    N3655    N        0.63157    0.69311    0.13759    1.000
    Si3656   Si       0.59173    0.54425    0.30193    1.000
    N3657    N        0.62186    0.61246    0.29547    1.000
    N3658    N        0.60759    0.55237    0.26019    1.000
    Si3659   Si       0.61670    0.59489    0.25543    1.000
    N3660    N        0.62783    0.53892    0.32256    1.000
    Si3661   Si       0.58581    0.63156    0.31463    1.000
    N3662    N        0.57718    0.62322    0.35690    1.000
    Si3663   Si       0.62407    0.68099    0.27957    1.000
    N3664    N        0.59782    0.67357    0.31452    1.000
    N3665    N        0.59154    0.74244    0.34337    1.000
    Si3666   Si       0.61416    0.74894    0.30526    1.000
    Si3667   Si       0.59152    0.69907    0.35071    1.000
    N3668    N        0.58229    0.74935    0.27342    1.000
    N3669    N        0.59800    0.67776    0.24536    1.000
    N3670    N        0.61848    0.56762    0.44481    1.000
    Si3671   Si       0.60653    0.53325    0.46819    1.000
    Si3672   Si       0.61492    0.55912    0.40214    1.000
    N3673    N        0.57848    0.68198    0.47901    1.000
    N3674    N        0.62345    0.63176    0.45798    1.000
    N3675    N        0.61301    0.67962    0.38800    1.000
    N3676    N        0.60151    0.73863    0.45611    1.000
    Si3677   Si       0.58169    0.64179    0.46260    1.000
    N3678    N        0.60890    0.55034    0.61194    1.000
    Si3679   Si       0.60733    0.62423    0.55809    1.000
    N3680    N        0.57822    0.54034    0.50361    1.000
    N3681    N        0.57604    0.59324    0.55374    1.000
    N3682    N        0.63177    0.71507    0.51187    1.000
    Si3683   Si       0.60511    0.67617    0.61149    1.000
    Si3684   Si       0.59844    0.68662    0.51671    1.000
    N3685    N        0.61424    0.64625    0.52223    1.000
    N3686    N        0.58155    0.65263    0.58319    1.000
    Si3687   Si       0.63345    0.73575    0.55085    1.000
    N3688    N        0.63101    0.70275    0.58026    1.000
    Si3689   Si       0.60578    0.51810    0.63893    1.000
    N3690    N        0.60831    0.53652    0.67794    1.000
    Si3691   Si       0.61491    0.57831    0.68848    1.000
    Si3692   Si       0.58787    0.51854    0.71250    1.000
    N3693    N        0.61695    0.51885    0.74461    1.000
    N3694    N        0.63455    0.60312    0.65575    1.000
    Si3695   Si       0.61764    0.75348    0.65926    1.000
    N3696    N        0.62552    0.67843    0.69158    1.000
    Si3697   Si       0.58953    0.69530    0.67177    1.000
    N3698    N        0.61111    0.71309    0.63727    1.000
    N3699    N        0.58693    0.73922    0.68797    1.000
    Si3700   Si       0.62802    0.64663    0.66243    1.000
    N3701    N        0.58766    0.65370    0.64704    1.000
    N3702    N        0.60265    0.58222    0.77115    1.000
    N3703    N        0.61428    0.53518    0.85432    1.000
    Si3704   Si       0.61996    0.62177    0.77859    1.000
    Si3705   Si       0.57889    0.52398    0.82892    1.000
    N3706    N        0.59319    0.62754    0.85312    1.000
    Si3707   Si       0.63504    0.55755    0.75365    1.000
    Si3708   Si       0.63862    0.62687    0.85157    1.000
    N3709    N        0.62781    0.74252    0.81653    1.000
    Si3710   Si       0.58430    0.69416    0.78164    1.000
    N3711    N        0.58895    0.65036    0.78655    1.000
    N3712    N        0.62135    0.70476    0.76121    1.000
    N3713    N        0.61887    0.62173    0.92653    1.000
    Si3714   Si       0.59463    0.52507    0.89275    1.000
    Si3715   Si       0.62338    0.57086    0.97953    1.000
    Si3716   Si       0.58476    0.59760    0.93116    1.000
    N3717    N        0.58215    0.57661    0.97009    1.000
    N3718    N        0.60106    0.65315    0.98857    1.000
    Si3719   Si       0.59216    0.72520    0.91702    1.000
    Si3720   Si       0.61256    0.65844    0.94710    1.000
    N3721    N        0.58578    0.69401    0.94667    1.000
    N3722    N        0.62278    0.71532    0.88863    1.000
    N3723    N        0.60591    0.85225    0.08176    1.000
    Si3724   Si       0.59510    0.81964    0.05579    1.000
    N3725    N        0.59217    0.78016    0.07512    1.000
    Si3726   Si       0.62683    0.76696    0.09600    1.000
    N3727    N        0.63497    0.81653    0.03922    1.000
    N3728    N        0.59693    0.90560    0.03194    1.000
    Si3729   Si       0.60563    0.89512    0.07182    1.000
    N3730    N        0.61381    0.00176    0.01577    1.000
    N3731    N        0.63801    0.98787    0.07889    1.000
    N3732    N        0.57800    0.90442    0.10514    1.000
    Si3733   Si       0.61821    0.85544    0.12346    1.000
    N3734    N        0.59685    0.82186    0.14351    1.000
    Si3735   Si       0.61120    0.78748    0.16537    1.000
    Si3736   Si       0.60144    0.77402    0.24092    1.000
    N3737    N        0.58497    0.77546    0.19755    1.000
    N3738    N        0.58166    0.86665    0.21380    1.000
    N3739    N        0.60621    0.93751    0.18799    1.000
    N3740    N        0.58284    0.00526    0.17502    1.000
    Si3741   Si       0.61169    0.89545    0.19921    1.000
    N3742    N        0.60323    0.95905    0.12812    1.000
    N3743    N        0.59225    0.97206    0.24033    1.000
    Si3744   Si       0.60657    0.97836    0.19905    1.000
    Si3745   Si       0.58875    0.91914    0.14677    1.000
    N3746    N        0.61888    0.88730    0.15499    1.000
    Si3747   Si       0.60805    0.81668    0.30220    1.000
    N3748    N        0.59662    0.81353    0.26055    1.000
    N3749    N        0.62834    0.85559    0.30846    1.000
    N3750    N        0.63520    0.78526    0.30860    1.000
    Si3751   Si       0.60041    0.88653    0.29758    1.000
    N3752    N        0.59333    0.95223    0.30687    1.000
    Si3753   Si       0.61395    0.94740    0.26957    1.000
    Si3754   Si       0.61088    0.98927    0.32238    1.000
    N3755    N        0.62214    0.90475    0.26453    1.000
    N3756    N        0.58193    0.89356    0.33773    1.000
    N3757    N        0.62850    0.84813    0.47790    1.000
    N3758    N        0.58508    0.85073    0.39831    1.000
    N3759    N        0.59249    0.78332    0.39588    1.000
    Si3760   Si       0.61441    0.81983    0.39666    1.000
    Si3761   Si       0.58187    0.77141    0.43569    1.000
    Si3762   Si       0.60117    0.95798    0.48382    1.000
    N3763    N        0.61980    0.98378    0.45270    1.000
    N3764    N        0.62835    0.91871    0.45853    1.000
    Si3765   Si       0.60116    0.79452    0.59409    1.000
    N3766    N        0.60134    0.76285    0.56458    1.000
    N3767    N        0.58592    0.88683    0.58136    1.000
    Si3768   Si       0.59373    0.86601    0.49780    1.000
    N3769    N        0.61327    0.89676    0.52440    1.000
    N3770    N        0.59526    0.95899    0.57536    1.000
    Si3771   Si       0.58854    0.91891    0.55266    1.000
    Si3772   Si       0.61071    0.95935    0.61487    1.000
    Si3773   Si       0.58274    0.99677    0.55260    1.000
    N3774    N        0.63827    0.95751    0.51022    1.000
    N3775    N        0.60757    0.81893    0.69695    1.000
    N3776    N        0.59730    0.78444    0.63708    1.000
    N3777    N        0.60631    0.85600    0.63865    1.000
    Si3778   Si       0.58635    0.80554    0.73128    1.000
    Si3779   Si       0.58644    0.82173    0.65938    1.000
    Si3780   Si       0.59198    0.87968    0.73465    1.000
    N3781    N        0.63464    0.87753    0.72569    1.000
    N3782    N        0.59407    0.95118    0.70561    1.000
    Si3783   Si       0.58281    0.88879    0.62431    1.000
    N3784    N        0.59491    0.92770    0.64047    1.000
    Si3785   Si       0.59344    0.99700    0.73413    1.000
    N3786    N        0.59122    0.99853    0.62808    1.000
    Si3787   Si       0.59337    0.84602    0.79730    1.000
    N3788    N        0.61824    0.81307    0.81203    1.000
    Si3789   Si       0.60507    0.77608    0.79636    1.000
    N3790    N        0.61359    0.77973    0.75360    1.000
    N3791    N        0.58363    0.84276    0.75604    1.000
    N3792    N        0.61783    0.88151    0.80701    1.000
    N3793    N        0.62378    0.78198    0.87173    1.000
    N3794    N        0.60893    0.95529    0.80659    1.000
    Si3795   Si       0.60221    0.98849    0.83676    1.000
    Si3796   Si       0.59304    0.91659    0.80100    1.000
    N3797    N        0.57902    0.91245    0.76055    1.000
    Si3798   Si       0.61214    0.79574    0.90981    1.000
    N3799    N        0.60969    0.81558    0.97935    1.000
    Si3800   Si       0.61025    0.76992    0.98132    1.000
    Si3801   Si       0.58499    0.84112    0.95448    1.000
    N3802    N        0.60967    0.76062    0.93722    1.000
    N3803    N        0.57960    0.82533    0.91502    1.000
    N3804    N        0.59637    0.88197    0.95909    1.000
    Si3805   Si       0.60885    0.91721    0.93517    1.000
    N3806    N        0.62600    0.93551    0.97366    1.000
    Si3807   Si       0.58164    0.98622    0.90605    1.000
    N3808    N        0.58380    0.94014    0.90980    1.000
    N3809    N        0.60260    0.99739    0.94963    1.000
    Si3810   Si       0.62752    0.97830    0.98049    1.000
    Si3811   Si       0.61817    0.89683    0.99525    1.000
    Si3812   Si       0.66175    0.08139    0.07669    1.000
    N3813    N        0.68060    0.02315    0.02771    1.000
    N3814    N        0.64598    0.11798    0.05927    1.000
    N3815    N        0.66843    0.09014    0.11810    1.000
    Si3816   Si       0.64275    0.01395    0.04387    1.000
    N3817    N        0.68757    0.09249    0.00202    1.000
    N3818    N        0.67115    0.16012    0.01472    1.000
    Si3819   Si       0.67373    0.20296    0.01984    1.000
    Si3820   Si       0.67926    0.21226    0.09106    1.000
    N3821    N        0.68067    0.16960    0.09840    1.000
    N3822    N        0.64232    0.23467    0.09480    1.000
    Si3823   Si       0.64290    0.14575    0.09216    1.000
    N3824    N        0.63897    0.22653    0.02492    1.000
    Si3825   Si       0.65165    0.06849    0.15439    1.000
    N3826    N        0.64726    0.02799    0.13423    1.000
    Si3827   Si       0.68760    0.12031    0.20793    1.000
    N3828    N        0.68275    0.09193    0.17714    1.000
    N3829    N        0.65996    0.15081    0.20107    1.000
    N3830    N        0.68245    0.21374    0.23535    1.000
    Si3831   Si       0.66956    0.19290    0.19978    1.000
    N3832    N        0.67186    0.11173    0.32638    1.000
    N3833    N        0.64842    0.05227    0.32553    1.000
    Si3834   Si       0.68779    0.07062    0.32531    1.000
    N3835    N        0.64520    0.05778    0.25480    1.000
    Si3836   Si       0.68788    0.06050    0.25477    1.000
    Si3837   Si       0.66501    0.23239    0.26854    1.000
    N3838    N        0.66516    0.17818    0.34612    1.000
    Si3839   Si       0.64894    0.21339    0.32452    1.000
    N3840    N        0.68661    0.22870    0.30598    1.000
    Si3841   Si       0.69213    0.14415    0.34413    1.000
    N3842    N        0.63451    0.25809    0.33049    1.000
    N3843    N        0.67230    0.08653    0.46221    1.000
    Si3844   Si       0.67163    0.12885    0.47680    1.000
    Si3845   Si       0.64174    0.05855    0.47872    1.000
    N3846    N        0.66247    0.02190    0.49347    1.000
    N3847    N        0.64270    0.01663    0.39709    1.000
    N3848    N        0.64027    0.17529    0.41608    1.000
    Si3849   Si       0.67950    0.18840    0.42878    1.000
    N3850    N        0.68805    0.22789    0.44726    1.000
    N3851    N        0.67686    0.05956    0.55156    1.000
    N3852    N        0.67154    0.03091    0.61421    1.000
    Si3853   Si       0.68935    0.02664    0.57468    1.000
    Si3854   Si       0.64623    0.06579    0.62243    1.000
    N3855    N        0.69311    0.12941    0.51358    1.000
    N3856    N        0.67882    0.19694    0.51158    1.000
    Si3857   Si       0.65261    0.25107    0.58278    1.000
    N3858    N        0.64663    0.24978    0.53876    1.000
    N3859    N        0.67866    0.17116    0.61430    1.000
    N3860    N        0.69455    0.23766    0.58767    1.000
    Si3861   Si       0.63893    0.17916    0.59345    1.000
    Si3862   Si       0.63827    0.21134    0.52202    1.000
    N3863    N        0.66829    0.09843    0.64679    1.000
    N3864    N        0.65335    0.08248    0.71599    1.000
    Si3865   Si       0.68994    0.05782    0.72539    1.000
    Si3866   Si       0.69448    0.19962    0.69160    1.000
    N3867    N        0.66568    0.20765    0.72548    1.000
    Si3868   Si       0.68563    0.13943    0.64617    1.000
    Si3869   Si       0.63875    0.17721    0.69907    1.000
    N3870    N        0.67471    0.16320    0.68029    1.000
    N3871    N        0.68722    0.22901    0.65887    1.000
    Si3872   Si       0.66309    0.24952    0.73881    1.000
    N3873    N        0.66259    0.04618    0.76699    1.000
    N3874    N        0.68503    0.05127    0.83087    1.000
    N3875    N        0.69099    0.11516    0.79961    1.000
    Si3876   Si       0.68905    0.07221    0.79249    1.000
    Si3877   Si       0.67596    0.06735    0.86860    1.000
    Si3878   Si       0.65197    0.13563    0.79959    1.000
    N3879    N        0.63569    0.08411    0.86356    1.000
    Si3880   Si       0.69305    0.14063    0.85845    1.000
    N3881    N        0.65061    0.14683    0.84308    1.000
    Si3882   Si       0.67616    0.19777    0.76773    1.000
    N3883    N        0.66087    0.22538    0.84436    1.000
    N3884    N        0.67712    0.24034    0.78041    1.000
    N3885    N        0.64382    0.17823    0.78933    1.000
    Si3886   Si       0.63697    0.18977    0.83404    1.000
    Si3887   Si       0.65406    0.25782    0.81282    1.000
    N3888    N        0.65155    0.04732    0.96141    1.000
    N3889    N        0.66184    0.11841    0.94505    1.000
    Si3890   Si       0.68261    0.02484    0.98497    1.000
    Si3891   Si       0.65337    0.08884    0.97560    1.000
    N3892    N        0.66797    0.03394    0.89665    1.000
    Si3893   Si       0.63555    0.02694    0.92750    1.000
    Si3894   Si       0.66349    0.22100    0.95294    1.000
    N3895    N        0.69250    0.21796    0.98455    1.000
    N3896    N        0.63665    0.18689    0.95330    1.000
    N3897    N        0.68617    0.15689    0.90079    1.000
    Si3898   Si       0.64622    0.15550    0.92374    1.000
    N3899    N        0.67892    0.22103    0.91470    1.000
    Si3900   Si       0.66799    0.24686    0.88097    1.000
    N3901    N        0.65246    0.33277    0.04185    1.000
    N3902    N        0.68184    0.28802    0.08665    1.000
    Si3903   Si       0.65368    0.35814    0.00667    1.000
    Si3904   Si       0.64493    0.27884    0.11129    1.000
    Si3905   Si       0.68966    0.32450    0.06461    1.000
    N3906    N        0.68958    0.35361    0.09628    1.000
    Si3907   Si       0.67466    0.39398    0.09439    1.000
    N3908    N        0.64752    0.45950    0.09231    1.000
    Si3909   Si       0.68425    0.45783    0.06697    1.000
    N3910    N        0.68701    0.48678    0.03475    1.000
    N3911    N        0.63680    0.39806    0.01186    1.000
    N3912    N        0.65962    0.32680    0.21129    1.000
    Si3913   Si       0.66758    0.28663    0.22549    1.000
    N3914    N        0.65761    0.30949    0.14374    1.000
    Si3915   Si       0.69307    0.35373    0.20586    1.000
    N3916    N        0.69030    0.39396    0.22650    1.000
    Si3917   Si       0.64928    0.48213    0.18736    1.000
    N3918    N        0.68142    0.41332    0.13437    1.000
    N3919    N        0.66987    0.45347    0.21475    1.000
    N3920    N        0.67481    0.48091    0.15207    1.000
    Si3921   Si       0.69167    0.49502    0.24041    1.000
    Si3922   Si       0.65502    0.44726    0.13248    1.000
    Si3923   Si       0.65221    0.41774    0.23167    1.000
    Si3924   Si       0.65662    0.28941    0.30941    1.000
    N3925    N        0.65844    0.27641    0.26650    1.000
    Si3926   Si       0.64912    0.35676    0.29516    1.000
    N3927    N        0.64024    0.32775    0.32603    1.000
    N3928    N        0.69780    0.29362    0.32168    1.000
    Si3929   Si       0.67042    0.39020    0.35708    1.000
    N3930    N        0.64680    0.39320    0.31968    1.000
    Si3931   Si       0.64674    0.43072    0.29768    1.000
    Si3932   Si       0.65182    0.50230    0.31371    1.000
    N3933    N        0.68318    0.50061    0.28375    1.000
    N3934    N        0.68747    0.42948    0.28300    1.000
    N3935    N        0.68240    0.50814    0.34694    1.000
    N3936    N        0.64347    0.27383    0.40898    1.000
    Si3937   Si       0.67479    0.26812    0.43616    1.000
    N3938    N        0.64422    0.33965    0.44395    1.000
    N3939    N        0.65851    0.28538    0.47564    1.000
    Si3940   Si       0.69094    0.33260    0.45112    1.000
    N3941    N        0.69184    0.42272    0.37800    1.000
    N3942    N        0.68781    0.47793    0.41808    1.000
    Si3943   Si       0.66487    0.44224    0.41100    1.000
    N3944    N        0.66684    0.42150    0.44904    1.000
    Si3945   Si       0.64186    0.42394    0.48459    1.000
    N3946    N        0.66556    0.31913    0.53708    1.000
    Si3947   Si       0.66957    0.27888    0.51740    1.000
    N3948    N        0.67265    0.34915    0.60623    1.000
    Si3949   Si       0.69210    0.33004    0.56977    1.000
    N3950    N        0.63820    0.28974    0.59366    1.000
    N3951    N        0.65935    0.45220    0.58005    1.000
    Si3952   Si       0.65318    0.49535    0.51861    1.000
    N3953    N        0.66296    0.45371    0.50868    1.000
    N3954    N        0.68801    0.50794    0.54299    1.000
    N3955    N        0.64191    0.38621    0.50493    1.000
    Si3956   Si       0.69531    0.47495    0.57266    1.000
    Si3957   Si       0.64746    0.31860    0.62506    1.000
    N3958    N        0.66109    0.29965    0.66149    1.000
    N3959    N        0.69334    0.27247    0.71554    1.000
    Si3960   Si       0.69290    0.37364    0.71240    1.000
    Si3961   Si       0.69413    0.27167    0.66969    1.000
    Si3962   Si       0.64006    0.45046    0.61953    1.000
    N3963    N        0.65053    0.38232    0.71525    1.000
    Si3964   Si       0.67960    0.38482    0.63162    1.000
    N3965    N        0.63917    0.48983    0.63666    1.000
    Si3966   Si       0.64052    0.41537    0.68395    1.000
    N3967    N        0.64910    0.41488    0.64055    1.000
    N3968    N        0.66629    0.44630    0.70120    1.000
    N3969    N        0.66793    0.29966    0.81874    1.000
    Si3970   Si       0.67851    0.33964    0.83105    1.000
    N3971    N        0.64465    0.36495    0.84069    1.000
    N3972    N        0.66356    0.43694    0.84270    1.000
    Si3973   Si       0.66811    0.44506    0.79616    1.000
    N3974    N        0.65798    0.48532    0.78521    1.000
    N3975    N        0.64075    0.41220    0.78914    1.000
    Si3976   Si       0.63112    0.40644    0.83265    1.000
    Si3977   Si       0.63909    0.28862    0.92959    1.000
    N3978    N        0.66905    0.32294    0.92386    1.000
    Si3979   Si       0.64759    0.35707    0.93744    1.000
    N3980    N        0.64373    0.25920    0.96067    1.000
    Si3981   Si       0.68431    0.47404    0.99220    1.000
    N3982    N        0.64816    0.45985    0.97402    1.000
    Si3983   Si       0.63793    0.41854    0.97211    1.000
    N3984    N        0.66494    0.39471    0.94704    1.000
    Si3985   Si       0.66855    0.55836    0.09695    1.000
    Si3986   Si       0.64640    0.56458    0.03481    1.000
    N3987    N        0.68447    0.59779    0.09024    1.000
    Si3988   Si       0.68132    0.63195    0.11935    1.000
    N3989    N        0.68922    0.55987    0.03640    1.000
    N3990    N        0.63611    0.60021    0.01213    1.000
    Si3991   Si       0.68465    0.66589    0.05036    1.000
    N3992    N        0.67433    0.66486    0.09313    1.000
    Si3993   Si       0.66095    0.70573    0.10538    1.000
    N3994    N        0.64576    0.67566    0.03071    1.000
    N3995    N        0.63857    0.72999    0.07710    1.000
    N3996    N        0.63959    0.74733    0.00553    1.000
    N3997    N        0.65804    0.51627    0.22185    1.000
    Si3998   Si       0.66046    0.58569    0.16619    1.000
    N3999    N        0.65302    0.62564    0.15135    1.000
    N4000    N        0.65365    0.55543    0.13545    1.000
    Si4001   Si       0.66683    0.55978    0.22022    1.000
    N4002    N        0.65725    0.59875    0.23928    1.000
    N4003    N        0.69529    0.57089    0.18897    1.000
    Si4004   Si       0.69775    0.69827    0.20110    1.000
    N4005    N        0.66291    0.66939    0.20065    1.000
    N4006    N        0.69092    0.73627    0.17784    1.000
    Si4007   Si       0.67150    0.64041    0.23246    1.000
    Si4008   Si       0.65420    0.55547    0.35383    1.000
    N4009    N        0.68233    0.58282    0.33518    1.000
    Si4010   Si       0.66639    0.62542    0.29673    1.000
    N4011    N        0.67115    0.64515    0.33618    1.000
    Si4012   Si       0.68174    0.72299    0.27735    1.000
    N4013    N        0.65998    0.65943    0.26819    1.000
    N4014    N        0.64157    0.71927    0.29140    1.000
    Si4015   Si       0.67404    0.61368    0.36715    1.000
    N4016    N        0.67900    0.59184    0.44988    1.000
    Si4017   Si       0.67105    0.56653    0.48683    1.000
    N4018    N        0.64657    0.53007    0.49002    1.000
    N4019    N        0.64015    0.52884    0.38859    1.000
    Si4020   Si       0.64357    0.60673    0.43005    1.000
    N4021    N        0.64430    0.59019    0.38791    1.000
    Si4022   Si       0.68091    0.51084    0.39088    1.000
    Si4023   Si       0.64366    0.63254    0.49545    1.000
    Si4024   Si       0.65289    0.68490    0.40537    1.000
    N4025    N        0.68370    0.69988    0.37608    1.000
    Si4026   Si       0.64158    0.73418    0.47227    1.000
    N4027    N        0.66161    0.71178    0.44075    1.000
    N4028    N        0.68306    0.65209    0.49120    1.000
    N4029    N        0.66925    0.64508    0.41612    1.000
    N4030    N        0.66294    0.59753    0.51611    1.000
    Si4031   Si       0.63830    0.57886    0.61621    1.000
    N4032    N        0.63544    0.60790    0.58498    1.000
    Si4033   Si       0.69469    0.62523    0.52828    1.000
    Si4034   Si       0.66627    0.63691    0.59654    1.000
    Si4035   Si       0.65402    0.71044    0.61511    1.000
    N4036    N        0.68806    0.65322    0.56140    1.000
    N4037    N        0.67054    0.75697    0.55678    1.000
    Si4038   Si       0.67709    0.51063    0.63930    1.000
    Si4039   Si       0.67140    0.61174    0.72801    1.000
    N4040    N        0.67025    0.55364    0.63574    1.000
    N4041    N        0.64596    0.57595    0.71661    1.000
    Si4042   Si       0.69209    0.58822    0.65347    1.000
    N4043    N        0.69533    0.61475    0.69215    1.000
    N4044    N        0.63961    0.63659    0.74450    1.000
    Si4045   Si       0.64125    0.67800    0.73173    1.000
    Si4046   Si       0.68250    0.75646    0.66559    1.000
    N4047    N        0.68153    0.69031    0.74139    1.000
    N4048    N        0.65599    0.75672    0.62998    1.000
    N4049    N        0.64660    0.66164    0.62437    1.000
    N4050    N        0.67175    0.56001    0.77686    1.000
    N4051    N        0.68345    0.52793    0.83549    1.000
    Si4052   Si       0.68618    0.52230    0.79432    1.000
    N4053    N        0.65018    0.61616    0.81058    1.000
    Si4054   Si       0.65431    0.54774    0.86276    1.000
    Si4055   Si       0.69051    0.60039    0.79853    1.000
    Si4056   Si       0.65232    0.72076    0.78551    1.000
    N4057    N        0.67880    0.72709    0.86125    1.000
    N4058    N        0.67779    0.69218    0.80464    1.000
    N4059    N        0.65991    0.66285    0.86657    1.000
    N4060    N        0.67284    0.75451    0.76825    1.000
    Si4061   Si       0.69272    0.68016    0.84327    1.000
    Si4062   Si       0.63721    0.74268    0.85751    1.000
    N4063    N        0.69103    0.62351    0.93092    1.000
    N4064    N        0.65191    0.59252    0.87399    1.000
    Si4065   Si       0.65546    0.60239    0.91738    1.000
    N4066    N        0.64933    0.56784    0.94483    1.000
    Si4067   Si       0.68053    0.53787    0.93784    1.000
    N4068    N        0.67939    0.52940    0.89505    1.000
    Si4069   Si       0.66170    0.69540    0.89601    1.000
    N4070    N        0.64987    0.67639    0.93684    1.000
    Si4071   Si       0.69148    0.66589    0.94101    1.000
    Si4072   Si       0.66904    0.81320    0.06571    1.000
    N4073    N        0.65615    0.79732    0.10360    1.000
    N4074    N        0.68539    0.85472    0.05793    1.000
    Si4075   Si       0.67813    0.76918    0.00782    1.000
    N4076    N        0.65535    0.87181    0.99995    1.000
    Si4077   Si       0.64434    0.82990    0.00010    1.000
    N4078    N        0.69370    0.78568    0.04561    1.000
    Si4079   Si       0.67769    0.88209    0.09043    1.000
    Si4080   Si       0.69666    0.87604    0.01865    1.000
    N4081    N        0.64198    0.91129    0.08637    1.000
    Si4082   Si       0.63873    0.95211    0.10246    1.000
    N4083    N        0.66348    0.85734    0.12336    1.000
    Si4084   Si       0.67791    0.81550    0.14088    1.000
    Si4085   Si       0.67487    0.77121    0.20216    1.000
    N4086    N        0.65422    0.79571    0.17191    1.000
    Si4087   Si       0.66620    0.87706    0.16415    1.000
    N4088    N        0.64077    0.76303    0.22985    1.000
    N4089    N        0.69534    0.84599    0.17625    1.000
    Si4090   Si       0.68221    0.00249    0.12935    1.000
    N4091    N        0.65548    0.89099    0.20611    1.000
    N4092    N        0.67488    0.96069    0.12798    1.000
    Si4093   Si       0.69271    0.91828    0.20478    1.000
    N4094    N        0.64335    0.00517    0.20629    1.000
    Si4095   Si       0.68878    0.00258    0.20348    1.000
    N4096    N        0.69902    0.96122    0.21334    1.000
    Si4097   Si       0.65968    0.85225    0.33673    1.000
    Si4098   Si       0.67732    0.78295    0.31888    1.000
    N4099    N        0.68030    0.76857    0.35999    1.000
    N4100    N        0.69017    0.82443    0.31884    1.000
    N4101    N        0.67601    0.84461    0.24622    1.000
    N4102    N        0.64561    0.82753    0.36869    1.000
    N4103    N        0.68238    0.88494    0.35404    1.000
    N4104    N        0.65405    0.96013    0.27829    1.000
    N4105    N        0.65085    0.98140    0.33982    1.000
    Si4106   Si       0.68300    0.96645    0.31375    1.000
    Si4107   Si       0.65742    0.88408    0.24887    1.000
    Si4108   Si       0.68972    0.95737    0.25472    1.000
    N4109    N        0.69326    0.91323    0.25160    1.000
    N4110    N        0.64703    0.80576    0.42455    1.000
    Si4111   Si       0.65181    0.81206    0.46779    1.000
    Si4112   Si       0.67202    0.79955    0.38823    1.000
    N4113    N        0.67270    0.87654    0.42228    1.000
    N4114    N        0.64936    0.77459    0.48509    1.000
    N4115    N        0.68998    0.83124    0.46900    1.000
    Si4116   Si       0.65279    0.88135    0.46080    1.000
    N4117    N        0.65573    0.94447    0.39949    1.000
    Si4118   Si       0.66202    0.98284    0.38122    1.000
    N4119    N        0.68762    0.96665    0.45396    1.000
    Si4120   Si       0.64813    0.95418    0.44171    1.000
    Si4121   Si       0.67834    0.90647    0.39125    1.000
    Si4122   Si       0.66941    0.78083    0.59402    1.000
    N4123    N        0.67626    0.87249    0.60909    1.000
    N4124    N        0.64162    0.81359    0.59534    1.000
    Si4125   Si       0.69133    0.88005    0.57076    1.000
    N4126    N        0.69478    0.84378    0.54383    1.000
    Si4127   Si       0.65203    0.91547    0.51816    1.000
    N4128    N        0.67304    0.91742    0.55665    1.000
    Si4129   Si       0.68374    0.95276    0.57943    1.000
    N4130    N        0.67850    0.98970    0.55594    1.000
    Si4131   Si       0.64884    0.99777    0.52566    1.000
    N4132    N        0.65624    0.96052    0.61255    1.000
    N4133    N        0.67875    0.89014    0.49345    1.000
    Si4134   Si       0.64534    0.84756    0.62629    1.000
    N4135    N        0.67007    0.81496    0.72807    1.000
    Si4136   Si       0.64676    0.84139    0.70196    1.000
    N4137    N        0.66889    0.84807    0.66531    1.000
    Si4138   Si       0.65107    0.77580    0.73498    1.000
    N4139    N        0.65097    0.76147    0.69322    1.000
    N4140    N        0.63744    0.98660    0.74003    1.000
    Si4141   Si       0.66719    0.90210    0.73726    1.000
    N4142    N        0.64060    0.99179    0.67170    1.000
    N4143    N        0.66929    0.93013    0.70175    1.000
    Si4144   Si       0.67161    0.99297    0.63931    1.000
    Si4145   Si       0.63593    0.96043    0.70221    1.000
    N4146    N        0.68548    0.79071    0.83898    1.000
    Si4147   Si       0.64651    0.80883    0.84769    1.000
    N4148    N        0.65296    0.84993    0.86180    1.000
    Si4149   Si       0.65658    0.88072    0.82787    1.000
    N4150    N        0.69043    0.86054    0.81129    1.000
    N4151    N        0.66045    0.92539    0.77373    1.000
    N4152    N        0.66029    0.92108    0.84271    1.000
    Si4153   Si       0.65356    0.95063    0.80919    1.000
    N4154    N        0.68116    0.98314    0.79408    1.000
    Si4155   Si       0.67209    0.00456    0.75833    1.000
    N4156    N        0.64274    0.98488    0.84902    1.000
    N4157    N        0.67520    0.80512    0.98346    1.000
    Si4158   Si       0.65616    0.85835    0.90421    1.000
    Si4159   Si       0.68624    0.81682    0.94276    1.000
    N4160    N        0.64716    0.81968    0.92067    1.000
    N4161    N        0.69410    0.85762    0.92567    1.000
    Si4162   Si       0.66506    0.92671    0.88530    1.000
    Si4163   Si       0.69382    0.96105    0.94405    1.000
    N4164    N        0.67041    0.98629    0.96960    1.000
    N4165    N        0.66508    0.96329    0.90991    1.000
    Si4166   Si       0.66971    0.99455    0.88072    1.000
    N4167    N        0.64072    0.89937    0.90970    1.000
    Si4168   Si       0.71264    0.03221    0.05602    1.000
    Si4169   Si       0.71578    0.10477    0.03824    1.000
    N4170    N        0.70146    0.07321    0.06450    1.000
    N4171    N        0.75346    0.02568    0.04128    1.000
    N4172    N        0.74995    0.08852    0.01633    1.000
    N4173    N        0.70901    0.01177    0.09473    1.000
    N4174    N        0.73612    0.13529    0.06120    1.000
    N4175    N        0.75386    0.19467    0.09118    1.000
    Si4176   Si       0.72468    0.15903    0.09494    1.000
    Si4177   Si       0.74361    0.22453    0.05829    1.000
    N4178    N        0.70028    0.21648    0.05349    1.000
    N4179    N        0.70720    0.23265    0.11947    1.000
    N4180    N        0.70864    0.03277    0.22674    1.000
    Si4181   Si       0.70736    0.09665    0.13879    1.000
    N4182    N        0.73969    0.06745    0.13807    1.000
    Si4183   Si       0.74891    0.02509    0.15632    1.000
    Si4184   Si       0.73783    0.11498    0.24312    1.000
    N4185    N        0.70856    0.01043    0.16384    1.000
    Si4186   Si       0.75149    0.04232    0.22540    1.000
    N4187    N        0.69517    0.10176    0.24460    1.000
    N4188    N        0.72553    0.13682    0.13241    1.000
    N4189    N        0.72979    0.13540    0.20650    1.000
    Si4190   Si       0.71661    0.22956    0.21289    1.000
    N4191    N        0.75290    0.21994    0.22988    1.000
    Si4192   Si       0.73376    0.21311    0.14795    1.000
    N4193    N        0.70666    0.20145    0.17946    1.000
    Si4194   Si       0.75166    0.14768    0.16884    1.000
    N4195    N        0.71067    0.05909    0.36085    1.000
    N4196    N        0.70675    0.05132    0.29279    1.000
    Si4197   Si       0.73397    0.01844    0.29009    1.000
    Si4198   Si       0.73061    0.02260    0.36606    1.000
    N4199    N        0.75191    0.01108    0.33005    1.000
    N4200    N        0.72883    0.16759    0.33134    1.000
    N4201    N        0.72933    0.24317    0.35872    1.000
    Si4202   Si       0.73341    0.19884    0.36277    1.000
    Si4203   Si       0.71847    0.25414    0.31816    1.000
    N4204    N        0.71111    0.12449    0.37839    1.000
    N4205    N        0.73658    0.09540    0.43024    1.000
    N4206    N        0.71170    0.03116    0.44579    1.000
    Si4207   Si       0.71116    0.07194    0.45855    1.000
    Si4208   Si       0.73188    0.08851    0.38500    1.000
    Si4209   Si       0.75031    0.01626    0.43345    1.000
    N4210    N        0.72662    0.06962    0.50102    1.000
    N4211    N        0.70987    0.18625    0.39655    1.000
    Si4212   Si       0.70345    0.22190    0.48787    1.000
    Si4213   Si       0.72295    0.14652    0.41288    1.000
    N4214    N        0.73678    0.19300    0.49044    1.000
    N4215    N        0.69712    0.15176    0.44737    1.000
    N4216    N        0.73395    0.09631    0.56518    1.000
    N4217    N        0.73301    0.02566    0.57467    1.000
    Si4218   Si       0.70508    0.09075    0.53241    1.000
    Si4219   Si       0.75022    0.06203    0.58926    1.000
    Si4220   Si       0.75459    0.03750    0.50067    1.000
    N4221    N        0.74565    0.16711    0.55015    1.000
    Si4222   Si       0.71259    0.16863    0.52040    1.000
    Si4223   Si       0.72051    0.25559    0.55786    1.000
    N4224    N        0.70940    0.01296    0.73463    1.000
    N4225    N        0.74129    0.07059    0.63089    1.000
    Si4226   Si       0.70645    0.08055    0.65410    1.000
    N4227    N        0.72425    0.12155    0.65722    1.000
    N4228    N        0.70348    0.04833    0.68355    1.000
    Si4229   Si       0.72391    0.01179    0.69076    1.000
    Si4230   Si       0.69855    0.20900    0.61961    1.000
    Si4231   Si       0.74506    0.19539    0.74495    1.000
    N4232    N        0.73630    0.19904    0.70178    1.000
    N4233    N        0.73989    0.20314    0.62827    1.000
    N4234    N        0.73879    0.02115    0.80513    1.000
    Si4235   Si       0.74386    0.02372    0.76190    1.000
    N4236    N        0.71873    0.07348    0.75472    1.000
    Si4237   Si       0.70073    0.01007    0.82079    1.000
    N4238    N        0.74383    0.23630    0.75770    1.000
    Si4239   Si       0.72528    0.13997    0.79597    1.000
    N4240    N        0.71327    0.17510    0.76911    1.000
    N4241    N        0.72700    0.15742    0.83676    1.000
    N4242    N        0.73607    0.24766    0.82590    1.000
    Si4243   Si       0.73746    0.24439    0.86751    1.000
    Si4244   Si       0.71929    0.25506    0.78751    1.000
    N4245    N        0.72859    0.11442    0.95001    1.000
    N4246    N        0.72096    0.03930    0.97222    1.000
    Si4247   Si       0.72484    0.08231    0.98075    1.000
    N4248    N        0.70518    0.09695    0.88312    1.000
    Si4249   Si       0.75054    0.09716    0.88160    1.000
    Si4250   Si       0.69730    0.11838    0.92139    1.000
    Si4251   Si       0.73569    0.21646    0.97691    1.000
    Si4252   Si       0.71059    0.19168    0.91126    1.000
    N4253    N        0.73639    0.20363    0.87977    1.000
    N4254    N        0.74980    0.24928    0.95462    1.000
    N4255    N        0.73727    0.18453    0.94559    1.000
    N4256    N        0.75616    0.14013    0.89311    1.000
    N4257    N        0.72879    0.32278    0.04388    1.000
    Si4258   Si       0.71639    0.27137    0.10432    1.000
    Si4259   Si       0.73571    0.34828    0.00861    1.000
    N4260    N        0.69608    0.36495    0.00199    1.000
    N4261    N        0.74940    0.26758    0.07372    1.000
    Si4262   Si       0.70814    0.40337    0.02073    1.000
    N4263    N        0.71562    0.46700    0.09829    1.000
    Si4264   Si       0.74980    0.44162    0.10076    1.000
    N4265    N        0.74676    0.40083    0.11775    1.000
    N4266    N        0.74925    0.39096    0.01864    1.000
    N4267    N        0.69284    0.41601    0.05904    1.000
    N4268    N        0.70755    0.35757    0.16539    1.000
    Si4269   Si       0.73000    0.28287    0.17670    1.000
    N4270    N        0.72580    0.29925    0.13814    1.000
    N4271    N        0.72583    0.34313    0.23184    1.000
    N4272    N        0.70330    0.27012    0.20886    1.000
    Si4273   Si       0.69418    0.33168    0.13310    1.000
    Si4274   Si       0.71918    0.39765    0.15040    1.000
    Si4275   Si       0.70937    0.43271    0.21452    1.000
    N4276    N        0.72877    0.46349    0.24223    1.000
    N4277    N        0.73452    0.42127    0.18037    1.000
    Si4278   Si       0.70522    0.49854    0.12539    1.000
    Si4279   Si       0.71333    0.33401    0.32074    1.000
    N4280    N        0.70133    0.35829    0.35473    1.000
    Si4281   Si       0.71574    0.37685    0.25965    1.000
    N4282    N        0.75339    0.25751    0.29258    1.000
    N4283    N        0.69213    0.35436    0.28781    1.000
    N4284    N        0.73664    0.47267    0.31428    1.000
    Si4285   Si       0.72666    0.44408    0.28347    1.000
    N4286    N        0.74622    0.40452    0.26684    1.000
    Si4287   Si       0.71359    0.50948    0.31412    1.000
    N4288    N        0.70693    0.29698    0.43115    1.000
    Si4289   Si       0.72713    0.35831    0.38961    1.000
    N4290    N        0.70787    0.36811    0.42729    1.000
    N4291    N        0.70864    0.34008    0.48848    1.000
    Si4292   Si       0.74995    0.29845    0.42377    1.000
    N4293    N        0.75074    0.32192    0.38762    1.000
    N4294    N        0.73139    0.43388    0.43266    1.000
    Si4295   Si       0.70665    0.40302    0.45231    1.000
    Si4296   Si       0.73648    0.42930    0.39042    1.000
    N4297    N        0.72026    0.48078    0.48919    1.000
    Si4298   Si       0.72202    0.47458    0.44594    1.000
    N4299    N        0.71677    0.40720    0.49345    1.000
    N4300    N        0.71850    0.29652    0.57605    1.000
    N4301    N        0.71711    0.36191    0.55220    1.000
    Si4302   Si       0.72905    0.36929    0.51239    1.000
    Si4303   Si       0.74623    0.30208    0.60898    1.000
    Si4304   Si       0.73595    0.37744    0.58828    1.000
    N4305    N        0.74637    0.34493    0.61370    1.000
    N4306    N        0.70787    0.25606    0.51586    1.000
    N4307    N        0.72154    0.44930    0.55064    1.000
    N4308    N        0.71416    0.40549    0.61369    1.000
    N4309    N        0.70693    0.49082    0.61167    1.000
    Si4310   Si       0.70489    0.44584    0.51209    1.000
    N4311    N        0.72912    0.28826    0.64986    1.000
    Si4312   Si       0.71919    0.29979    0.73452    1.000
    N4313    N        0.70435    0.33961    0.73470    1.000
    Si4314   Si       0.74392    0.47472    0.63241    1.000
    N4315    N        0.69961    0.37994    0.67003    1.000
    N4316    N        0.71342    0.40012    0.74232    1.000
    Si4317   Si       0.73230    0.40572    0.65551    1.000
    N4318    N        0.72374    0.47118    0.73417    1.000
    N4319    N        0.72707    0.44866    0.66441    1.000
    Si4320   Si       0.70405    0.46638    0.69571    1.000
    N4321    N        0.70036    0.50544    0.67814    1.000
    N4322    N        0.73179    0.29668    0.77766    1.000
    Si4323   Si       0.72098    0.36466    0.76572    1.000
    Si4324   Si       0.73711    0.36298    0.84628    1.000
    N4325    N        0.71082    0.36080    0.80743    1.000
    N4326    N        0.70623    0.33600    0.86505    1.000
    N4327    N        0.71188    0.44135    0.79737    1.000
    N4328    N        0.72768    0.40455    0.85988    1.000
    Si4329   Si       0.73241    0.43499    0.75987    1.000
    Si4330   Si       0.70667    0.43946    0.84213    1.000
    N4331    N        0.72036    0.47271    0.86480    1.000
    Si4332   Si       0.74689    0.50497    0.75185    1.000
    N4333    N        0.74463    0.31209    0.92200    1.000
    N4334    N        0.70493    0.26873    0.88259    1.000
    Si4335   Si       0.70442    0.30923    0.90086    1.000
    N4336    N        0.73939    0.38224    0.93943    1.000
    Si4337   Si       0.74126    0.46515    0.90090    1.000
    Si4338   Si       0.74696    0.40427    0.89966    1.000
    Si4339   Si       0.70447    0.40914    0.95189    1.000
    N4340    N        0.71510    0.43722    0.92127    1.000
    N4341    N        0.70300    0.43265    0.98899    1.000
    N4342    N        0.69861    0.50669    0.96419    1.000
    N4343    N        0.75189    0.50220    0.91898    1.000
    Si4344   Si       0.71454    0.59623    0.05459    1.000
    Si4345   Si       0.70948    0.52140    0.05030    1.000
    N4346    N        0.74575    0.61918    0.07748    1.000
    N4347    N        0.70317    0.63318    0.03111    1.000
    N4348    N        0.69637    0.52700    0.09277    1.000
    N4349    N        0.74953    0.51289    0.04091    1.000
    N4350    N        0.75253    0.58333    0.02650    1.000
    Si4351   Si       0.73032    0.71543    0.07991    1.000
    N4352    N        0.71356    0.69900    0.04195    1.000
    N4353    N        0.70049    0.72603    0.11037    1.000
    Si4354   Si       0.72600    0.70943    0.99997    1.000
    Si4355   Si       0.74974    0.64721    0.11045    1.000
    N4356    N        0.75233    0.75049    0.06652    1.000
    N4357    N        0.71987    0.52723    0.23125    1.000
    N4358    N        0.73101    0.51589    0.15510    1.000
    Si4359   Si       0.72661    0.54243    0.18947    1.000
    N4360    N        0.71315    0.63167    0.22090    1.000
    N4361    N        0.70483    0.71542    0.24005    1.000
    N4362    N        0.73607    0.68250    0.18796    1.000
    Si4363   Si       0.73554    0.63856    0.18342    1.000
    Si4364   Si       0.71554    0.74844    0.14498    1.000
    N4365    N        0.71992    0.63650    0.14067    1.000
    N4366    N        0.73270    0.54431    0.29886    1.000
    N4367    N        0.70959    0.61081    0.28761    1.000
    Si4368   Si       0.72213    0.58218    0.31747    1.000
    Si4369   Si       0.73648    0.61927    0.25420    1.000
    Si4370   Si       0.75150    0.62071    0.36886    1.000
    Si4371   Si       0.74971    0.54242    0.25839    1.000
    N4372    N        0.74143    0.73971    0.34961    1.000
    Si4373   Si       0.73759    0.73333    0.30602    1.000
    N4374    N        0.73889    0.65908    0.34927    1.000
    N4375    N        0.70436    0.70210    0.30891    1.000
    Si4376   Si       0.69858    0.67645    0.34368    1.000
    Si4377   Si       0.74273    0.58818    0.49078    1.000
    N4378    N        0.70640    0.54243    0.40641    1.000
    Si4379   Si       0.71822    0.58249    0.42163    1.000
    N4380    N        0.71456    0.60966    0.38788    1.000
    N4381    N        0.73534    0.61612    0.45574    1.000
    N4382    N        0.71257    0.55675    0.49731    1.000
    Si4383   Si       0.74794    0.52630    0.40141    1.000
    N4384    N        0.72447    0.67810    0.44036    1.000
    Si4385   Si       0.70552    0.71538    0.44569    1.000
    N4386    N        0.71982    0.74524    0.41529    1.000
    Si4387   Si       0.70492    0.73657    0.37449    1.000
    N4388    N        0.71197    0.73842    0.48287    1.000
    Si4389   Si       0.69674    0.64087    0.45112    1.000
    N4390    N        0.73562    0.61349    0.52689    1.000
    Si4391   Si       0.72096    0.51901    0.51612    1.000
    N4392    N        0.69699    0.61645    0.61806    1.000
    N4393    N        0.75684    0.52487    0.53733    1.000
    Si4394   Si       0.73517    0.63825    0.61861    1.000
    N4395    N        0.72597    0.71586    0.54541    1.000
    Si4396   Si       0.71369    0.68741    0.57352    1.000
    N4397    N        0.69773    0.70652    0.60891    1.000
    N4398    N        0.74999    0.66460    0.58737    1.000
    Si4399   Si       0.70154    0.74574    0.52645    1.000
    Si4400   Si       0.73815    0.52768    0.67801    1.000
    N4401    N        0.72910    0.56714    0.66356    1.000
    N4402    N        0.73395    0.66312    0.65226    1.000
    N4403    N        0.73023    0.74871    0.73564    1.000
    N4404    N        0.73923    0.67759    0.71652    1.000
    Si4405   Si       0.72726    0.70579    0.64280    1.000
    N4406    N        0.70840    0.72312    0.67779    1.000
    Si4407   Si       0.71312    0.71098    0.71900    1.000
    Si4408   Si       0.73093    0.64203    0.69174    1.000
    N4409    N        0.72760    0.58267    0.81674    1.000
    Si4410   Si       0.73766    0.61620    0.84490    1.000
    N4411    N        0.72914    0.51867    0.78778    1.000
    Si4412   Si       0.74913    0.54547    0.81536    1.000
    N4413    N        0.75104    0.53290    0.85805    1.000
    Si4414   Si       0.71237    0.51551    0.86674    1.000
    N4415    N        0.69933    0.62226    0.76092    1.000
    N4416    N        0.70811    0.64137    0.82188    1.000
    N4417    N        0.73702    0.69024    0.85265    1.000
    N4418    N        0.74487    0.67490    0.78246    1.000
    N4419    N        0.73459    0.75213    0.81049    1.000
    Si4420   Si       0.70171    0.66233    0.78033    1.000
    Si4421   Si       0.71045    0.75418    0.84739    1.000
    N4422    N        0.71872    0.56121    0.93976    1.000
    Si4423   Si       0.72809    0.60155    0.92851    1.000
    Si4424   Si       0.73792    0.52549    0.95243    1.000
    N4425    N        0.74738    0.60546    0.88708    1.000
    N4426    N        0.74848    0.61953    0.96260    1.000
    N4427    N        0.73920    0.74945    0.88480    1.000
    Si4428   Si       0.74279    0.70545    0.89430    1.000
    N4429    N        0.71008    0.74773    0.98915    1.000
    N4430    N        0.70478    0.69128    0.90997    1.000
    N4431    N        0.71288    0.67474    0.97827    1.000
    Si4432   Si       0.73059    0.64088    0.99721    1.000
    Si4433   Si       0.73673    0.78785    0.04871    1.000
    Si4434   Si       0.75006    0.81466    0.11996    1.000
    N4435    N        0.75342    0.81709    0.07656    1.000
    N4436    N        0.71139    0.90953    0.09370    1.000
    N4437    N        0.71932    0.91358    0.02632    1.000
    Si4438   Si       0.74184    0.92048    0.06359    1.000
    Si4439   Si       0.74646    0.98757    0.09654    1.000
    N4440    N        0.75131    0.96382    0.05998    1.000
    N4441    N        0.71630    0.79246    0.13299    1.000
    Si4442   Si       0.73423    0.87491    0.17064    1.000
    Si4443   Si       0.70743    0.83399    0.21794    1.000
    N4444    N        0.70870    0.79025    0.22051    1.000
    N4445    N        0.74806    0.85555    0.13570    1.000
    N4446    N        0.73227    0.87197    0.21804    1.000
    N4447    N        0.70192    0.90866    0.16354    1.000
    N4448    N        0.74725    0.95630    0.12808    1.000
    Si4449   Si       0.70909    0.93367    0.12960    1.000
    Si4450   Si       0.72775    0.83681    0.30181    1.000
    N4451    N        0.74360    0.82323    0.26633    1.000
    Si4452   Si       0.72901    0.78169    0.25855    1.000
    N4453    N        0.70179    0.76113    0.28751    1.000
    N4454    N        0.72846    0.88101    0.29716    1.000
    N4455    N        0.75151    0.88522    0.36083    1.000
    Si4456   Si       0.73270    0.89471    0.25673    1.000
    N4457    N        0.71026    0.98348    0.28277    1.000
    Si4458   Si       0.71881    0.89691    0.33545    1.000
    N4459    N        0.71227    0.93996    0.33233    1.000
    Si4460   Si       0.72787    0.95476    0.37199    1.000
    Si4461   Si       0.74160    0.78426    0.42070    1.000
    N4462    N        0.74213    0.86437    0.43104    1.000
    Si4463   Si       0.70309    0.84631    0.43041    1.000
    N4464    N        0.71096    0.81276    0.40416    1.000
    Si4465   Si       0.74617    0.76701    0.48989    1.000
    Si4466   Si       0.75210    0.89469    0.40239    1.000
    N4467    N        0.70513    0.99105    0.37896    1.000
    N4468    N        0.72004    0.92541    0.40461    1.000
    Si4469   Si       0.72459    0.94674    0.44273    1.000
    N4470    N        0.74231    0.92149    0.47090    1.000
    N4471    N        0.75671    0.97457    0.43287    1.000
    Si4472   Si       0.69627    0.00289    0.47570    1.000
    N4473    N        0.72642    0.78203    0.52750    1.000
    Si4474   Si       0.72259    0.81155    0.55951    1.000
    N4475    N        0.70725    0.79978    0.59915    1.000
    N4476    N        0.74417    0.86423    0.50699    1.000
    Si4477   Si       0.70262    0.85398    0.50329    1.000
    N4478    N        0.73353    0.88968    0.57862    1.000
    N4479    N        0.72463    0.95555    0.59252    1.000
    Si4480   Si       0.74101    0.91958    0.60893    1.000
    N4481    N        0.73318    0.00174    0.49957    1.000
    Si4482   Si       0.75254    0.98642    0.57851    1.000
    Si4483   Si       0.73124    0.80638    0.63315    1.000
    N4484    N        0.74139    0.81733    0.72292    1.000
    N4485    N        0.74026    0.84671    0.64545    1.000
    N4486    N        0.71167    0.78600    0.66747    1.000
    N4487    N        0.70373    0.87592    0.73856    1.000
    Si4488   Si       0.73568    0.77898    0.70274    1.000
    Si4489   Si       0.70092    0.87061    0.64555    1.000
    Si4490   Si       0.70784    0.83233    0.74443    1.000
    Si4491   Si       0.70768    0.93908    0.67999    1.000
    Si4492   Si       0.73864    0.90184    0.73727    1.000
    N4493    N        0.71934    0.90991    0.64809    1.000
    N4494    N        0.70450    0.98116    0.66599    1.000
    N4495    N        0.73843    0.93821    0.71057    1.000
    N4496    N        0.71469    0.80832    0.78004    1.000
    Si4497   Si       0.70934    0.82289    0.82085    1.000
    N4498    N        0.74712    0.81940    0.84076    1.000
    Si4499   Si       0.71417    0.76596    0.77554    1.000
    N4500    N        0.70796    0.99180    0.85988    1.000
    N4501    N        0.74090    0.92249    0.77386    1.000
    N4502    N        0.72086    0.79374    0.93586    1.000
    Si4503   Si       0.73935    0.77381    0.97365    1.000
    Si4504   Si       0.75318    0.77993    0.90989    1.000
    N4505    N        0.72460    0.85591    0.99358    1.000
    N4506    N        0.74480    0.97295    0.98798    1.000
    Si4507   Si       0.71719    0.89266    0.92709    1.000
    Si4508   Si       0.74045    0.98572    0.88639    1.000
    N4509    N        0.70975    0.92464    0.95859    1.000
    N4510    N        0.72533    0.98450    0.92592    1.000
    Si4511   Si       0.73895    0.92844    0.99033    1.000
    Si4512   Si       0.74540    0.00501    0.95840    1.000
    N4513    N        0.70856    0.91574    0.89063    1.000
    Si4514   Si       0.75338    0.91347    0.88249    1.000
    Si4515   Si       0.77631    0.06107    0.03902    1.000
    N4516    N        0.77689    0.08264    0.07668    1.000
    Si4517   Si       0.77962    0.12670    0.06744    1.000
    Si4518   Si       0.77617    0.06062    0.11320    1.000
    N4519    N        0.77416    0.01804    0.11912    1.000
    N4520    N        0.81202    0.12968    0.03720    1.000
    N4521    N        0.78990    0.14067    0.10777    1.000
    Si4522   Si       0.79993    0.22568    0.00639    1.000
    Si4523   Si       0.78817    0.18412    0.11658    1.000
    N4524    N        0.75890    0.21687    0.01562    1.000
    N4525    N        0.77262    0.02529    0.19078    1.000
    N4526    N        0.78864    0.12411    0.17359    1.000
    N4527    N        0.76440    0.08071    0.23998    1.000
    N4528    N        0.81267    0.07223    0.13379    1.000
    Si4529   Si       0.81133    0.11505    0.13584    1.000
    N4530    N        0.76957    0.18612    0.15659    1.000
    Si4531   Si       0.78158    0.20884    0.19653    1.000
    N4532    N        0.79776    0.17300    0.21607    1.000
    N4533    N        0.75224    0.24719    0.16995    1.000
    Si4534   Si       0.78884    0.09623    0.27308    1.000
    Si4535   Si       0.80053    0.10112    0.34065    1.000
    N4536    N        0.76440    0.01790    0.25999    1.000
    N4537    N        0.80848    0.07631    0.30497    1.000
    N4538    N        0.75559    0.12397    0.28275    1.000
    N4539    N        0.77437    0.08813    0.37080    1.000
    N4540    N        0.79639    0.14358    0.33288    1.000
    N4541    N        0.78065    0.18766    0.28248    1.000
    Si4542   Si       0.77142    0.22793    0.26816    1.000
    Si4543   Si       0.76272    0.15674    0.30933    1.000
    N4544    N        0.80849    0.24589    0.25768    1.000
    Si4545   Si       0.80975    0.16965    0.25705    1.000
    Si4546   Si       0.79339    0.06016    0.39581    1.000
    Si4547   Si       0.77590    0.11552    0.43837    1.000
    N4548    N        0.77780    0.03673    0.46027    1.000
    N4549    N        0.76134    0.03228    0.39551    1.000
    N4550    N        0.80794    0.09066    0.42647    1.000
    N4551    N        0.76717    0.14964    0.41364    1.000
    Si4552   Si       0.77514    0.17904    0.47446    1.000
    N4553    N        0.79304    0.20261    0.44411    1.000
    Si4554   Si       0.80560    0.24501    0.43727    1.000
    Si4555   Si       0.79237    0.18268    0.40551    1.000
    N4556    N        0.78562    0.13778    0.47431    1.000
    Si4557   Si       0.76960    0.24919    0.37631    1.000
    N4558    N        0.77525    0.20663    0.37442    1.000
    N4559    N        0.81156    0.25860    0.47761    1.000
    N4560    N        0.79479    0.06219    0.58651    1.000
    N4561    N        0.79301    0.04925    0.51869    1.000
    N4562    N        0.79607    0.11772    0.54201    1.000
    Si4563   Si       0.76248    0.12973    0.56481    1.000
    Si4564   Si       0.80987    0.07650    0.54798    1.000
    Si4565   Si       0.81058    0.02390    0.59790    1.000
    N4566    N        0.77088    0.13394    0.60836    1.000
    N4567    N        0.80390    0.18377    0.58375    1.000
    N4568    N        0.80033    0.18839    0.51198    1.000
    Si4569   Si       0.77806    0.19850    0.55002    1.000
    Si4570   Si       0.77484    0.17539    0.61707    1.000
    Si4571   Si       0.81135    0.14380    0.51083    1.000
    N4572    N        0.75906    0.23731    0.55951    1.000
    N4573    N        0.80397    0.09813    0.65243    1.000
    N4574    N        0.78374    0.10934    0.72221    1.000
    Si4575   Si       0.76285    0.10752    0.64129    1.000
    Si4576   Si       0.81632    0.11051    0.69166    1.000
    N4577    N        0.78133    0.24848    0.67282    1.000
    N4578    N        0.80812    0.24098    0.73688    1.000
    N4579    N        0.79018    0.18118    0.65715    1.000
    Si4580   Si       0.75933    0.21066    0.66759    1.000
    Si4581   Si       0.78496    0.10714    0.81764    1.000
    N4582    N        0.77788    0.05269    0.76496    1.000
    Si4583   Si       0.76770    0.03637    0.83506    1.000
    N4584    N        0.76324    0.07968    0.84327    1.000
    N4585    N        0.80824    0.02097    0.81888    1.000
    N4586    N        0.76190    0.12043    0.78203    1.000
    Si4587   Si       0.75761    0.08902    0.75102    1.000
    Si4588   Si       0.79340    0.13846    0.75515    1.000
    N4589    N        0.79192    0.14369    0.83619    1.000
    Si4590   Si       0.76184    0.17188    0.86148    1.000
    N4591    N        0.79697    0.19916    0.86121    1.000
    N4592    N        0.78560    0.18027    0.75007    1.000
    Si4593   Si       0.80860    0.10169    0.93508    1.000
    N4594    N        0.76685    0.01928    0.87559    1.000
    N4595    N        0.77798    0.07656    0.91188    1.000
    Si4596   Si       0.79370    0.03459    0.90456    1.000
    N4597    N        0.78508    0.01192    0.94098    1.000
    N4598    N        0.77442    0.25932    0.88684    1.000
    Si4599   Si       0.75711    0.14678    0.93618    1.000
    N4600    N        0.79815    0.14499    0.94582    1.000
    Si4601   Si       0.80850    0.23986    0.87251    1.000
    N4602    N        0.76335    0.33531    0.10101    1.000
    Si4603   Si       0.77998    0.37493    0.11141    1.000
    N4604    N        0.80378    0.32139    0.05116    1.000
    Si4605   Si       0.76224    0.30878    0.06573    1.000
    N4606    N        0.80856    0.26841    0.01105    1.000
    N4607    N        0.79197    0.45954    0.00932    1.000
    Si4608   Si       0.78229    0.41774    0.02542    1.000
    Si4609   Si       0.77882    0.47978    0.04779    1.000
    N4610    N        0.76690    0.44018    0.06138    1.000
    N4611    N        0.81016    0.48900    0.07490    1.000
    N4612    N        0.79002    0.35873    0.14974    1.000
    Si4613   Si       0.76715    0.32019    0.14181    1.000
    N4614    N        0.79919    0.28987    0.13984    1.000
    Si4615   Si       0.76736    0.33537    0.22083    1.000
    N4616    N        0.76431    0.30827    0.18772    1.000
    N4617    N        0.79167    0.37293    0.22134    1.000
    Si4618   Si       0.79684    0.27194    0.17951    1.000
    Si4619   Si       0.77286    0.44245    0.17214    1.000
    N4620    N        0.77605    0.45917    0.13197    1.000
    N4621    N        0.77436    0.47915    0.19531    1.000
    Si4622   Si       0.77020    0.47483    0.23565    1.000
    N4623    N        0.80106    0.44479    0.24658    1.000
    Si4624   Si       0.77980    0.31957    0.35550    1.000
    Si4625   Si       0.77460    0.29687    0.29031    1.000
    N4626    N        0.79284    0.27793    0.35274    1.000
    N4627    N        0.78596    0.31575    0.25258    1.000
    N4628    N        0.75608    0.32522    0.31680    1.000
    N4629    N        0.81156    0.34795    0.36801    1.000
    Si4630   Si       0.76862    0.48074    0.34348    1.000
    Si4631   Si       0.78861    0.40201    0.25328    1.000
    N4632    N        0.80406    0.48179    0.32055    1.000
    N4633    N        0.78124    0.51095    0.26008    1.000
    Si4634   Si       0.79879    0.29718    0.48607    1.000
    Si4635   Si       0.79343    0.35430    0.46958    1.000
    N4636    N        0.77296    0.31729    0.45569    1.000
    N4637    N        0.80155    0.37948    0.43550    1.000
    N4638    N        0.77175    0.26311    0.41687    1.000
    Si4639   Si       0.79881    0.38160    0.39102    1.000
    Si4640   Si       0.79692    0.49493    0.44992    1.000
    N4641    N        0.75629    0.39035    0.38133    1.000
    N4642    N        0.77200    0.45646    0.37866    1.000
    N4643    N        0.80241    0.50099    0.49440    1.000
    N4644    N        0.75524    0.49968    0.43385    1.000
    N4645    N        0.78426    0.29199    0.59306    1.000
    N4646    N        0.77738    0.29546    0.52279    1.000
    Si4647   Si       0.78870    0.27031    0.55576    1.000
    N4648    N        0.77307    0.37415    0.50300    1.000
    N4649    N        0.81221    0.35636    0.60892    1.000
    Si4650   Si       0.76115    0.44102    0.56442    1.000
    N4651    N        0.77170    0.39943    0.57680    1.000
    Si4652   Si       0.80275    0.40296    0.51666    1.000
    N4653    N        0.78966    0.44176    0.53096    1.000
    N4654    N        0.77183    0.46337    0.60105    1.000
    Si4655   Si       0.81595    0.46579    0.59698    1.000
    Si4656   Si       0.76337    0.28865    0.67735    1.000
    Si4657   Si       0.78072    0.35432    0.63920    1.000
    N4658    N        0.79188    0.32043    0.66378    1.000
    N4659    N        0.75990    0.29088    0.71893    1.000
    N4660    N        0.79769    0.45499    0.69691    1.000
    Si4661   Si       0.80378    0.41406    0.68161    1.000
    Si4662   Si       0.80471    0.48837    0.66925    1.000
    Si4663   Si       0.80112    0.45560    0.73981    1.000
    N4664    N        0.77301    0.39201    0.65961    1.000
    N4665    N        0.76664    0.50367    0.65601    1.000
    N4666    N        0.77374    0.34303    0.82683    1.000
    N4667    N        0.79823    0.29743    0.77462    1.000
    Si4668   Si       0.76469    0.32300    0.78871    1.000
    N4669    N        0.76402    0.35696    0.76241    1.000
    Si4670   Si       0.80040    0.35030    0.86143    1.000
    Si4671   Si       0.77733    0.26665    0.74969    1.000
    Si4672   Si       0.79611    0.38648    0.75649    1.000
    N4673    N        0.77568    0.42564    0.76001    1.000
    N4674    N        0.78861    0.49309    0.76186    1.000
    N4675    N        0.80745    0.28509    0.94568    1.000
    Si4676   Si       0.80293    0.30230    0.98557    1.000
    N4677    N        0.76743    0.36664    0.88431    1.000
    Si4678   Si       0.76906    0.27474    0.92676    1.000
    Si4679   Si       0.76347    0.34634    0.94098    1.000
    N4680    N        0.76536    0.33029    0.98399    1.000
    N4681    N        0.80798    0.35388    0.94073    1.000
    N4682    N        0.77507    0.43713    0.89688    1.000
    Si4683   Si       0.77145    0.54468    0.01962    1.000
    Si4684   Si       0.77315    0.61774    0.04520    1.000
    Si4685   Si       0.79489    0.74687    0.06778    1.000
    N4686    N        0.77049    0.64983    0.01509    1.000
    Si4687   Si       0.79435    0.68769    0.01049    1.000
    Si4688   Si       0.80246    0.68889    0.11001    1.000
    N4689    N        0.75817    0.68797    0.09606    1.000
    N4690    N        0.80791    0.71200    0.04310    1.000
    N4691    N        0.80540    0.73291    0.10715    1.000
    N4692    N        0.79178    0.64335    0.12246    1.000
    Si4693   Si       0.80419    0.62058    0.15513    1.000
    N4694    N        0.77181    0.61581    0.18426    1.000
    Si4695   Si       0.78375    0.58311    0.21058    1.000
    N4696    N        0.77086    0.54790    0.18964    1.000
    Si4697   Si       0.77433    0.51257    0.16433    1.000
    N4698    N        0.80998    0.51364    0.14004    1.000
    N4699    N        0.75642    0.74146    0.15767    1.000
    Si4700   Si       0.80498    0.75737    0.21990    1.000
    N4701    N        0.80083    0.69548    0.15761    1.000
    Si4702   Si       0.79585    0.75542    0.14469    1.000
    N4703    N        0.78355    0.71768    0.22360    1.000
    Si4704   Si       0.76763    0.70858    0.18308    1.000
    Si4705   Si       0.78481    0.55551    0.34487    1.000
    N4706    N        0.75995    0.52139    0.36048    1.000
    N4707    N        0.75943    0.59025    0.34022    1.000
    N4708    N        0.81267    0.54645    0.30977    1.000
    N4709    N        0.76070    0.58364    0.24636    1.000
    Si4710   Si       0.77339    0.68173    0.33832    1.000
    N4711    N        0.77000    0.70299    0.30077    1.000
    Si4712   Si       0.78294    0.74690    0.36390    1.000
    Si4713   Si       0.78081    0.69239    0.25993    1.000
    N4714    N        0.76186    0.65398    0.25767    1.000
    N4715    N        0.79376    0.70513    0.37051    1.000
    N4716    N        0.76291    0.76328    0.27982    1.000
    N4717    N        0.81001    0.65654    0.33161    1.000
    N4718    N        0.80992    0.75920    0.33157    1.000
    N4719    N        0.77986    0.56787    0.48200    1.000
    N4720    N        0.76091    0.56677    0.41437    1.000
    Si4721   Si       0.79538    0.56813    0.43978    1.000
    N4722    N        0.77806    0.63705    0.39894    1.000
    Si4723   Si       0.80907    0.65786    0.49623    1.000
    N4724    N        0.79727    0.65755    0.45459    1.000
    Si4725   Si       0.75791    0.64930    0.43603    1.000
    N4726    N        0.82309    0.74039    0.44633    1.000
    N4727    N        0.79638    0.61485    0.56946    1.000
    Si4728   Si       0.78924    0.53882    0.51208    1.000
    Si4729   Si       0.80491    0.62439    0.61003    1.000
    Si4730   Si       0.76194    0.63584    0.55146    1.000
    N4731    N        0.77647    0.66676    0.52518    1.000
    Si4732   Si       0.76779    0.70819    0.53335    1.000
    N4733    N        0.79457    0.71778    0.56829    1.000
    Si4734   Si       0.78529    0.69288    0.60257    1.000
    N4735    N        0.77777    0.73797    0.50253    1.000
    N4736    N        0.76728    0.61161    0.62767    1.000
    Si4737   Si       0.79712    0.54468    0.71215    1.000
    N4738    N        0.79960    0.56859    0.67652    1.000
    Si4739   Si       0.76426    0.59205    0.66602    1.000
    Si4740   Si       0.80105    0.61364    0.72296    1.000
    N4741    N        0.76545    0.61839    0.70010    1.000
    N4742    N        0.80794    0.57549    0.74105    1.000
    N4743    N        0.75470    0.53282    0.71783    1.000
    N4744    N        0.79211    0.70872    0.73826    1.000
    Si4745   Si       0.78530    0.75534    0.64926    1.000
    Si4746   Si       0.77683    0.74781    0.73300    1.000
    N4747    N        0.76759    0.71927    0.63209    1.000
    N4748    N        0.79042    0.54888    0.80313    1.000
    Si4749   Si       0.81277    0.51114    0.79407    1.000
    N4750    N        0.77621    0.63412    0.83221    1.000
    Si4751   Si       0.77878    0.74717    0.80830    1.000
    N4752    N        0.79493    0.70698    0.81427    1.000
    Si4753   Si       0.76366    0.67753    0.82068    1.000
    Si4754   Si       0.76863    0.67395    0.74603    1.000
    N4755    N        0.80501    0.64949    0.74666    1.000
    Si4756   Si       0.79310    0.60225    0.89449    1.000
    Si4757   Si       0.80325    0.55933    0.95668    1.000
    Si4758   Si       0.77962    0.52775    0.89143    1.000
    N4759    N        0.77109    0.53923    0.97722    1.000
    N4760    N        0.79058    0.56307    0.91575    1.000
    Si4761   Si       0.79059    0.63112    0.96909    1.000
    Si4762   Si       0.81017    0.67517    0.92791    1.000
    N4763    N        0.79920    0.63257    0.92317    1.000
    Si4764   Si       0.79106    0.72770    0.95453    1.000
    N4765    N        0.76825    0.71792    0.99026    1.000
    N4766    N        0.77626    0.70172    0.92125    1.000
    N4767    N        0.79301    0.84909    0.02561    1.000
    Si4768   Si       0.79621    0.82477    0.06270    1.000
    N4769    N        0.75387    0.79632    0.00882    1.000
    Si4770   Si       0.79990    0.89239    0.01969    1.000
    N4771    N        0.78314    0.90649    0.05866    1.000
    Si4772   Si       0.76448    0.98492    0.02514    1.000
    N4773    N        0.80467    0.98738    0.00672    1.000
    Si4774   Si       0.81210    0.89395    0.08826    1.000
    N4775    N        0.80453    0.85856    0.23442    1.000
    N4776    N        0.78863    0.79666    0.12914    1.000
    N4777    N        0.79201    0.79830    0.22301    1.000
    Si4778   Si       0.81031    0.00315    0.19241    1.000
    N4779    N        0.80483    0.91091    0.12753    1.000
    N4780    N        0.80091    0.97138    0.16257    1.000
    Si4781   Si       0.77904    0.93516    0.15105    1.000
    Si4782   Si       0.78936    0.89572    0.21680    1.000
    N4783    N        0.76632    0.90639    0.17985    1.000
    Si4784   Si       0.80946    0.99427    0.12534    1.000
    Si4785   Si       0.78392    0.86231    0.33814    1.000
    Si4786   Si       0.78638    0.82643    0.25860    1.000
    Si4787   Si       0.80420    0.77031    0.29003    1.000
    N4788    N        0.75872    0.82925    0.32971    1.000
    N4789    N        0.81356    0.81313    0.28802    1.000
    N4790    N        0.77213    0.91384    0.25134    1.000
    N4791    N        0.80537    0.89652    0.31561    1.000
    Si4792   Si       0.80016    0.99317    0.26526    1.000
    N4793    N        0.79089    0.96416    0.29563    1.000
    Si4794   Si       0.78479    0.98294    0.33445    1.000
    Si4795   Si       0.80083    0.92379    0.28311    1.000
    N4796    N        0.77156    0.95871    0.36775    1.000
    Si4797   Si       0.78974    0.82573    0.46618    1.000
    N4798    N        0.77748    0.77459    0.39563    1.000
    N4799    N        0.79903    0.87160    0.47187    1.000
    N4800    N        0.75672    0.79645    0.45958    1.000
    Si4801   Si       0.78718    0.95344    0.40938    1.000
    Si4802   Si       0.75674    0.88207    0.47005    1.000
    N4803    N        0.78841    0.91182    0.41870    1.000
    Si4804   Si       0.79424    0.81004    0.59374    1.000
    N4805    N        0.76316    0.82762    0.56655    1.000
    Si4806   Si       0.75892    0.86677    0.54973    1.000
    N4807    N        0.80997    0.84217    0.62128    1.000
    N4808    N        0.81224    0.82204    0.50451    1.000
    N4809    N        0.79611    0.88766    0.54416    1.000
    N4810    N        0.77949    0.96634    0.55114    1.000
    N4811    N        0.78595    0.92339    0.60551    1.000
    Si4812   Si       0.79808    0.92770    0.56291    1.000
    N4813    N        0.77900    0.99793    0.61136    1.000
    N4814    N        0.76920    0.78784    0.62479    1.000
    Si4815   Si       0.78330    0.85383    0.65612    1.000
    N4816    N        0.79584    0.82446    0.68608    1.000
    Si4817   Si       0.78216    0.83551    0.72721    1.000
    N4818    N        0.77411    0.87836    0.72905    1.000
    N4819    N        0.77258    0.75919    0.69018    1.000
    N4820    N        0.76700    0.99874    0.68824    1.000
    N4821    N        0.80768    0.94391    0.71917    1.000
    Si4822   Si       0.76954    0.96828    0.71990    1.000
    N4823    N        0.79856    0.89328    0.66845    1.000
    Si4824   Si       0.79343    0.99614    0.65267    1.000
    Si4825   Si       0.80666    0.90104    0.71177    1.000
    Si4826   Si       0.81326    0.92276    0.63896    1.000
    N4827    N        0.80346    0.77349    0.83619    1.000
    Si4828   Si       0.78791    0.80960    0.85546    1.000
    N4829    N        0.78879    0.76598    0.76967    1.000
    Si4830   Si       0.79693    0.87984    0.83969    1.000
    N4831    N        0.81428    0.82799    0.75418    1.000
    N4832    N        0.81256    0.84200    0.84662    1.000
    N4833    N        0.80277    0.88800    0.79763    1.000
    N4834    N        0.75821    0.89728    0.84175    1.000
    N4835    N        0.78923    0.95259    0.81850    1.000
    Si4836   Si       0.76833    0.91547    0.80376    1.000
    Si4837   Si       0.80160    0.98394    0.79025    1.000
    Si4838   Si       0.80475    0.94793    0.85874    1.000
    N4839    N        0.77170    0.98824    0.75836    1.000
    N4840    N        0.78760    0.80356    0.89806    1.000
    N4841    N        0.77580    0.76911    0.94743    1.000
    N4842    N        0.78619    0.83990    0.95751    1.000
    Si4843   Si       0.80319    0.80422    0.93921    1.000
    Si4844   Si       0.78970    0.88135    0.94751    1.000
    Si4845   Si       0.76399    0.83627    0.99397    1.000
    N4846    N        0.76046    0.88974    0.91702    1.000
    N4847    N        0.77015    0.95340    0.88483    1.000
    N4848    N        0.77580    0.90328    0.98455    1.000
    Si4849   Si       0.82951    0.09781    0.01323    1.000
    Si4850   Si       0.83279    0.01790    0.01378    1.000
    Si4851   Si       0.85849    0.05810    0.05522    1.000
    N4852    N        0.86648    0.01879    0.04073    1.000
    N4853    N        0.81951    0.05655    0.03090    1.000
    N4854    N        0.87166    0.09309    0.03171    1.000
    N4855    N        0.86867    0.06233    0.09508    1.000
    Si4856   Si       0.83604    0.22136    0.07393    1.000
    Si4857   Si       0.83777    0.16306    0.02820    1.000
    N4858    N        0.82901    0.19688    0.11084    1.000
    N4859    N        0.82194    0.20348    0.03589    1.000
    Si4860   Si       0.85257    0.05375    0.13373    1.000
    N4861    N        0.84627    0.02934    0.20661    1.000
    N4862    N        0.85811    0.12938    0.21005    1.000
    N4863    N        0.84520    0.01196    0.14071    1.000
    N4864    N        0.87436    0.07363    0.16577    1.000
    N4865    N        0.81419    0.23276    0.18224    1.000
    Si4866   Si       0.85556    0.23347    0.17173    1.000
    N4867    N        0.85084    0.13136    0.14228    1.000
    Si4868   Si       0.81252    0.13145    0.20832    1.000
    Si4869   Si       0.86108    0.17385    0.13195    1.000
    N4870    N        0.86947    0.19164    0.17111    1.000
    Si4871   Si       0.84583    0.05256    0.30032    1.000
    N4872    N        0.84070    0.10561    0.35726    1.000
    N4873    N        0.83687    0.01594    0.27683    1.000
    N4874    N        0.81637    0.12322    0.25442    1.000
    Si4875   Si       0.86240    0.11513    0.25056    1.000
    N4876    N        0.86864    0.07540    0.27112    1.000
    N4877    N        0.84143    0.23783    0.31669    1.000
    Si4878   Si       0.84620    0.23055    0.27322    1.000
    Si4879   Si       0.83284    0.15154    0.35600    1.000
    N4880    N        0.84817    0.18902    0.25897    1.000
    N4881    N        0.86091    0.16861    0.32994    1.000
    N4882    N        0.82992    0.03861    0.40081    1.000
    Si4883   Si       0.84515    0.06896    0.42904    1.000
    N4884    N        0.84801    0.05084    0.46876    1.000
    Si4885   Si       0.81487    0.03231    0.48404    1.000
    Si4886   Si       0.86430    0.20522    0.40094    1.000
    N4887    N        0.83331    0.17577    0.39212    1.000
    N4888    N        0.84438    0.24104    0.41611    1.000
    N4889    N        0.86557    0.21439    0.49331    1.000
    N4890    N        0.85054    0.07110    0.54684    1.000
    N4891    N        0.86977    0.13000    0.57604    1.000
    Si4892   Si       0.86981    0.03206    0.55487    1.000
    Si4893   Si       0.87118    0.10927    0.53910    1.000
    N4894    N        0.83386    0.00755    0.56610    1.000
    N4895    N        0.86366    0.24380    0.59923    1.000
    N4896    N        0.85425    0.14043    0.51043    1.000
    Si4897   Si       0.86222    0.23579    0.55854    1.000
    Si4898   Si       0.84512    0.16745    0.58260    1.000
    N4899    N        0.82092    0.24352    0.54228    1.000
    Si4900   Si       0.82481    0.22564    0.50329    1.000
    N4901    N        0.86532    0.19362    0.55468    1.000
    N4902    N        0.82653    0.02604    0.64052    1.000
    Si4903   Si       0.83635    0.06734    0.65000    1.000
    N4904    N        0.83735    0.07190    0.69368    1.000
    Si4905   Si       0.85869    0.04170    0.71750    1.000
    N4906    N        0.87151    0.08747    0.63285    1.000
    Si4907   Si       0.85910    0.15270    0.72958    1.000
    Si4908   Si       0.81818    0.24609    0.69617    1.000
    N4909    N        0.83758    0.14763    0.69136    1.000
    Si4910   Si       0.83355    0.17991    0.66189    1.000
    N4911    N        0.85345    0.16209    0.62530    1.000
    N4912    N        0.84536    0.21925    0.67493    1.000
    N4913    N        0.85815    0.19166    0.74452    1.000
    Si4914   Si       0.85313    0.11409    0.79349    1.000
    N4915    N        0.84866    0.03918    0.75954    1.000
    Si4916   Si       0.83847    0.01273    0.84854    1.000
    N4917    N        0.82210    0.08741    0.80703    1.000
    N4918    N        0.83453    0.12870    0.75701    1.000
    Si4919   Si       0.81482    0.05217    0.78448    1.000
    N4920    N        0.85645    0.14744    0.82022    1.000
    Si4921   Si       0.85570    0.23055    0.82087    1.000
    Si4922   Si       0.82324    0.17451    0.83237    1.000
    N4923    N        0.86321    0.20112    0.85390    1.000
    N4924    N        0.82386    0.20584    0.80138    1.000
    Si4925   Si       0.82007    0.20622    0.75937    1.000
    N4926    N        0.84322    0.10182    0.90817    1.000
    N4927    N        0.83365    0.03783    0.88617    1.000
    Si4928   Si       0.86457    0.06517    0.89542    1.000
    N4929    N        0.84582    0.01817    0.97262    1.000
    N4930    N        0.82281    0.09042    0.97228    1.000
    N4931    N        0.84002    0.23863    0.90382    1.000
    Si4932   Si       0.82817    0.17533    0.95496    1.000
    N4933    N        0.81947    0.21623    0.96804    1.000
    Si4934   Si       0.87099    0.20874    0.89649    1.000
    N4935    N        0.85468    0.17338    0.91996    1.000
    Si4936   Si       0.83699    0.24943    0.94653    1.000
    N4937    N        0.85277    0.15398    0.98605    1.000
    Si4938   Si       0.87081    0.13514    0.91056    1.000
    Si4939   Si       0.82751    0.28667    0.04360    1.000
    Si4940   Si       0.82433    0.35972    0.04957    1.000
    N4941    N        0.85480    0.31865    0.10495    1.000
    N4942    N        0.82394    0.26286    0.07818    1.000
    Si4943   Si       0.83559    0.28284    0.11752    1.000
    N4944    N        0.87075    0.36004    0.04745    1.000
    N4945    N        0.86726    0.50611    0.03994    1.000
    Si4946   Si       0.85390    0.41113    0.09754    1.000
    N4947    N        0.81800    0.38990    0.01529    1.000
    Si4948   Si       0.81315    0.47489    0.11576    1.000
    N4949    N        0.81757    0.38388    0.08706    1.000
    N4950    N        0.85017    0.35326    0.18133    1.000
    N4951    N        0.82754    0.29055    0.20663    1.000
    N4952    N        0.86476    0.26550    0.14362    1.000
    Si4953   Si       0.85809    0.32238    0.20881    1.000
    Si4954   Si       0.81243    0.37685    0.18233    1.000
    N4955    N        0.81235    0.42056    0.17592    1.000
    N4956    N        0.85350    0.47024    0.20349    1.000
    Si4957   Si       0.85222    0.43996    0.16970    1.000
    N4958    N        0.84587    0.44485    0.12474    1.000
    Si4959   Si       0.84298    0.45781    0.24449    1.000
    Si4960   Si       0.83068    0.27731    0.33130    1.000
    N4961    N        0.81830    0.30243    0.29794    1.000
    Si4962   Si       0.81520    0.34161    0.27423    1.000
    N4963    N        0.86572    0.26442    0.25596    1.000
    N4964    N        0.86573    0.30169    0.34207    1.000
    N4965    N        0.85015    0.33252    0.24933    1.000
    Si4966   Si       0.82593    0.28610    0.24964    1.000
    N4967    N        0.81350    0.38364    0.28401    1.000
    Si4968   Si       0.81462    0.50950    0.28903    1.000
    N4969    N        0.85159    0.49531    0.26964    1.000
    Si4970   Si       0.85365    0.40141    0.29168    1.000
    N4971    N        0.86735    0.42163    0.25376    1.000
    N4972    N        0.86836    0.42274    0.32794    1.000
    Si4973   Si       0.86340    0.41257    0.37016    1.000
    Si4974   Si       0.85219    0.33187    0.36859    1.000
    N4975    N        0.86030    0.31700    0.40908    1.000
    N4976    N        0.82460    0.33216    0.49321    1.000
    Si4977   Si       0.87171    0.27571    0.42175    1.000
    N4978    N        0.81445    0.45600    0.43977    1.000
    N4979    N        0.84669    0.48856    0.38604    1.000
    N4980    N        0.82439    0.41731    0.38779    1.000
    N4981    N        0.87037    0.39578    0.43702    1.000
    Si4982   Si       0.82826    0.41242    0.44178    1.000
    N4983    N        0.83175    0.40720    0.48554    1.000
    Si4984   Si       0.81379    0.45902    0.39416    1.000
    N4985    N        0.84011    0.31361    0.55993    1.000
    Si4986   Si       0.84524    0.34494    0.52762    1.000
    Si4987   Si       0.82114    0.31639    0.59816    1.000
    N4988    N        0.82837    0.38081    0.54361    1.000
    N4989    N        0.83361    0.42516    0.60033    1.000
    N4990    N        0.85658    0.46192    0.51179    1.000
    N4991    N        0.82494    0.49038    0.56265    1.000
    Si4992   Si       0.81731    0.47282    0.52343    1.000
    Si4993   Si       0.87140    0.42388    0.49799    1.000
    Si4994   Si       0.81427    0.39080    0.58342    1.000
    N4995    N        0.85859    0.34631    0.68076    1.000
    N4996    N        0.84729    0.30148    0.62921    1.000
    N4997    N        0.84017    0.28248    0.69761    1.000
    Si4998   Si       0.83505    0.31282    0.66598    1.000
    N4999    N        0.83032    0.48460    0.63418    1.000
    Si5000   Si       0.86470    0.41098    0.62846    1.000
    Si5001   Si       0.86638    0.50499    0.62510    1.000
    Si5002   Si       0.85568    0.38389    0.70062    1.000
    N5003    N        0.84384    0.40746    0.66596    1.000
    N5004    N        0.81514    0.39105    0.71773    1.000
    Si5005   Si       0.84725    0.29653    0.85607    1.000
    N5006    N        0.84752    0.32238    0.82130    1.000
    Si5007   Si       0.83330    0.32162    0.77981    1.000
    Si5008   Si       0.85129    0.37079    0.81548    1.000
    N5009    N        0.82536    0.36381    0.77930    1.000
    N5010    N        0.83397    0.37619    0.85612    1.000
    N5011    N        0.86850    0.30977    0.75845    1.000
    N5012    N        0.83257    0.25882    0.84086    1.000
    N5013    N        0.82838    0.47893    0.81756    1.000
    Si5014   Si       0.85450    0.45268    0.79336    1.000
    Si5015   Si       0.84428    0.48439    0.85908    1.000
    Si5016   Si       0.86133    0.41076    0.86162    1.000
    N5017    N        0.85703    0.41791    0.81799    1.000
    N5018    N        0.84332    0.45432    0.75166    1.000
    Si5019   Si       0.82935    0.31878    0.92493    1.000
    N5020    N        0.81952    0.31637    0.88299    1.000
    Si5021   Si       0.82646    0.37592    0.97426    1.000
    N5022    N        0.83846    0.32948    0.99323    1.000
    N5023    N        0.86856    0.38026    0.96730    1.000
    N5024    N        0.87149    0.31932    0.93000    1.000
    Si5025   Si       0.81732    0.45726    0.97618    1.000
    N5026    N        0.81997    0.41912    0.95163    1.000
    Si5027   Si       0.81568    0.44154    0.91509    1.000
    N5028    N        0.81635    0.48219    0.94032    1.000
    N5029    N        0.85795    0.45618    0.99226    1.000
    N5030    N        0.84408    0.44652    0.88292    1.000
    N5031    N        0.85595    0.54209    0.09721    1.000
    Si5032   Si       0.83680    0.52133    0.06412    1.000
    Si5033   Si       0.82673    0.58834    0.02445    1.000
    N5034    N        0.86874    0.58653    0.01156    1.000
    N5035    N        0.81595    0.61797    0.05182    1.000
    N5036    N        0.81270    0.54893    0.03803    1.000
    Si5037   Si       0.84981    0.64293    0.06194    1.000
    N5038    N        0.84304    0.67732    0.08910    1.000
    N5039    N        0.85363    0.67048    0.02795    1.000
    Si5040   Si       0.85252    0.70700    0.05182    1.000
    N5041    N        0.86570    0.74323    0.02671    1.000
    N5042    N        0.82783    0.58406    0.15083    1.000
    Si5043   Si       0.85211    0.60031    0.18410    1.000
    N5044    N        0.82790    0.58711    0.21775    1.000
    Si5045   Si       0.83857    0.54443    0.13773    1.000
    N5046    N        0.83754    0.64212    0.17865    1.000
    Si5047   Si       0.83943    0.68679    0.17581    1.000
    N5048    N        0.87066    0.70322    0.14939    1.000
    N5049    N        0.85621    0.70535    0.21079    1.000
    N5050    N        0.82972    0.60984    0.28515    1.000
    Si5051   Si       0.84476    0.57681    0.30971    1.000
    Si5052   Si       0.85396    0.59566    0.25169    1.000
    N5053    N        0.81842    0.55893    0.37085    1.000
    N5054    N        0.87008    0.56123    0.27430    1.000
    Si5055   Si       0.83281    0.65123    0.29707    1.000
    N5056    N        0.82393    0.68357    0.26729    1.000
    Si5057   Si       0.83131    0.68059    0.36323    1.000
    N5058    N        0.85789    0.71058    0.34404    1.000
    N5059    N        0.82655    0.75084    0.25669    1.000
    Si5060   Si       0.85092    0.71399    0.25368    1.000
    Si5061   Si       0.84994    0.75484    0.34659    1.000
    N5062    N        0.81494    0.52996    0.43189    1.000
    Si5063   Si       0.83998    0.53125    0.39404    1.000
    Si5064   Si       0.85430    0.61503    0.47053    1.000
    N5065    N        0.82561    0.59929    0.43822    1.000
    Si5066   Si       0.81542    0.63665    0.42105    1.000
    Si5067   Si       0.81885    0.73259    0.48791    1.000
    N5068    N        0.84540    0.65788    0.39732    1.000
    Si5069   Si       0.84480    0.53185    0.56132    1.000
    N5070    N        0.85350    0.54182    0.60308    1.000
    N5071    N        0.86321    0.60138    0.56619    1.000
    Si5072   Si       0.82612    0.59799    0.54293    1.000
    N5073    N        0.82898    0.62129    0.50563    1.000
    Si5074   Si       0.86680    0.58340    0.60444    1.000
    N5075    N        0.81660    0.55499    0.54067    1.000
    Si5076   Si       0.82761    0.74381    0.55628    1.000
    N5077    N        0.86254    0.71540    0.55640    1.000
    Si5078   Si       0.87038    0.69677    0.51728    1.000
    N5079    N        0.81612    0.66520    0.61700    1.000
    N5080    N        0.83246    0.69386    0.50134    1.000
    N5081    N        0.83759    0.60465    0.63027    1.000
    Si5082   Si       0.83741    0.58919    0.67166    1.000
    N5083    N        0.82491    0.51446    0.69711    1.000
    N5084    N        0.83659    0.62285    0.69662    1.000
    Si5085   Si       0.86538    0.52317    0.69371    1.000
    N5086    N        0.86667    0.71078    0.62506    1.000
    Si5087   Si       0.86472    0.65515    0.69999    1.000
    N5088    N        0.84906    0.69600    0.70626    1.000
    Si5089   Si       0.82913    0.68641    0.74330    1.000
    Si5090   Si       0.85980    0.66811    0.62902    1.000
    Si5091   Si       0.86451    0.73954    0.70838    1.000
    Si5092   Si       0.86594    0.75318    0.63567    1.000
    N5093    N        0.83678    0.60575    0.79683    1.000
    N5094    N        0.84730    0.53651    0.78148    1.000
    N5095    N        0.82284    0.59853    0.86331    1.000
    Si5096   Si       0.82069    0.57043    0.78074    1.000
    Si5097   Si       0.81719    0.62528    0.82999    1.000
    Si5098   Si       0.86637    0.58958    0.86901    1.000
    N5099    N        0.84238    0.65900    0.83940    1.000
    N5100    N        0.85778    0.69350    0.77760    1.000
    Si5101   Si       0.83665    0.69519    0.81798    1.000
    N5102    N        0.86578    0.72922    0.83173    1.000
    Si5103   Si       0.84117    0.51311    0.92038    1.000
    Si5104   Si       0.85832    0.59171    0.96882    1.000
    N5105    N        0.84825    0.54895    0.95033    1.000
    N5106    N        0.81950    0.51082    0.88212    1.000
    N5107    N        0.81384    0.59518    0.97994    1.000
    Si5108   Si       0.85812    0.67363    0.98372    1.000
    N5109    N        0.83165    0.73349    0.94660    1.000
    N5110    N        0.86693    0.63569    0.96314    1.000
    N5111    N        0.81376    0.67174    0.97207    1.000
    N5112    N        0.84517    0.68300    0.90742    1.000
    Si5113   Si       0.86354    0.66109    0.87716    1.000
    Si5114   Si       0.85863    0.78133    0.04708    1.000
    N5115    N        0.81430    0.78542    0.05931    1.000
    N5116    N        0.86602    0.80975    0.01514    1.000
    N5117    N        0.81372    0.85121    0.09249    1.000
    N5118    N        0.82277    0.97513    0.08832    1.000
    N5119    N        0.85196    0.91002    0.07511    1.000
    N5120    N        0.83846    0.90623    0.00551    1.000
    Si5121   Si       0.85990    0.95601    0.08329    1.000
    Si5122   Si       0.86894    0.91526    0.03353    1.000
    Si5123   Si       0.81978    0.82777    0.12961    1.000
    N5124    N        0.86350    0.81988    0.20258    1.000
    Si5125   Si       0.82097    0.82988    0.20561    1.000
    N5126    N        0.85728    0.80418    0.13512    1.000
    Si5127   Si       0.86167    0.78649    0.17525    1.000
    N5128    N        0.81659    0.84891    0.16703    1.000
    N5129    N        0.82427    0.76398    0.17922    1.000
    N5130    N        0.81810    0.97952    0.22779    1.000
    Si5131   Si       0.84508    0.94319    0.22207    1.000
    Si5132   Si       0.86072    0.00412    0.24148    1.000
    N5133    N        0.82646    0.91096    0.19888    1.000
    Si5134   Si       0.82940    0.89207    0.16137    1.000
    N5135    N        0.87239    0.89323    0.14949    1.000
    Si5136   Si       0.84304    0.82259    0.31897    1.000
    N5137    N        0.82292    0.84629    0.35297    1.000
    Si5138   Si       0.84264    0.88313    0.33821    1.000
    N5139    N        0.86823    0.85824    0.31323    1.000
    N5140    N        0.86887    0.78866    0.32585    1.000
    N5141    N        0.82191    0.99772    0.34834    1.000
    N5142    N        0.84074    0.92640    0.26414    1.000
    N5143    N        0.86328    0.91014    0.36405    1.000
    N5144    N        0.85523    0.87362    0.42888    1.000
    Si5145   Si       0.85610    0.83204    0.43584    1.000
    N5146    N        0.81723    0.81302    0.43557    1.000
    N5147    N        0.84437    0.76269    0.38933    1.000
    Si5148   Si       0.81369    0.77202    0.41876    1.000
    Si5149   Si       0.83949    0.99753    0.38689    1.000
    N5150    N        0.82435    0.97427    0.42039    1.000
    Si5151   Si       0.84359    0.97137    0.46023    1.000
    N5152    N        0.84107    0.92909    0.47113    1.000
    Si5153   Si       0.82227    0.89762    0.44623    1.000
    N5154    N        0.82608    0.78425    0.57828    1.000
    Si5155   Si       0.84919    0.80135    0.50636    1.000
    N5156    N        0.85575    0.87649    0.51374    1.000
    Si5157   Si       0.86640    0.80242    0.58183    1.000
    Si5158   Si       0.81435    0.86576    0.51281    1.000
    N5159    N        0.83831    0.75826    0.51580    1.000
    N5160    N        0.83729    0.93869    0.54129    1.000
    Si5161   Si       0.85983    0.91933    0.50980    1.000
    Si5162   Si       0.81768    0.98000    0.53701    1.000
    N5163    N        0.82393    0.99020    0.49362    1.000
    Si5164   Si       0.83029    0.79915    0.68008    1.000
    N5165    N        0.82820    0.76446    0.65066    1.000
    Si5166   Si       0.84847    0.85746    0.63584    1.000
    N5167    N        0.85927    0.83039    0.67234    1.000
    N5168    N        0.83660    0.77286    0.71718    1.000
    Si5169   Si       0.84387    0.96618    0.73016    1.000
    N5170    N        0.85049    0.00022    0.70362    1.000
    N5171    N        0.84169    0.88788    0.73581    1.000
    N5172    N        0.82296    0.96279    0.65137    1.000
    Si5173   Si       0.85550    0.99438    0.66037    1.000
    N5174    N        0.84949    0.90055    0.62786    1.000
    Si5175   Si       0.85629    0.84254    0.84117    1.000
    Si5176   Si       0.82607    0.78571    0.75830    1.000
    Si5177   Si       0.84485    0.76801    0.82938    1.000
    Si5178   Si       0.83001    0.86393    0.77106    1.000
    N5179    N        0.86186    0.84872    0.79683    1.000
    N5180    N        0.85573    0.76996    0.78674    1.000
    N5181    N        0.86453    0.80130    0.85069    1.000
    N5182    N        0.83947    0.97647    0.77255    1.000
    Si5183   Si       0.86941    0.00668    0.78236    1.000
    N5184    N        0.81615    0.90827    0.86619    1.000
    N5185    N        0.84623    0.80093    0.94607    1.000
    Si5186   Si       0.86082    0.76206    0.93584    1.000
    Si5187   Si       0.84717    0.89578    0.89417    1.000
    N5188    N        0.83595    0.97548    0.87065    1.000
    Si5189   Si       0.85886    0.96504    0.90622    1.000
    Si5190   Si       0.81455    0.98700    0.96339    1.000
    N5191    N        0.83833    0.95488    0.94441    1.000
    N5192    N        0.83078    0.88794    0.93366    1.000
    Si5193   Si       0.84969    0.91662    0.96346    1.000
    Si5194   Si       0.90072    0.12366    0.04194    1.000
    N5195    N        0.92205    0.13153    0.00534    1.000
    N5196    N        0.92806    0.11988    0.07387    1.000
    N5197    N        0.87900    0.22425    0.06692    1.000
    Si5198   Si       0.90041    0.18656    0.07345    1.000
    N5199    N        0.91540    0.24454    0.01475    1.000
    N5200    N        0.89973    0.17690    0.11648    1.000
    N5201    N        0.87531    0.15829    0.05053    1.000
    Si5202   Si       0.89662    0.26111    0.05154    1.000
    Si5203   Si       0.88579    0.04670    0.19854    1.000
    N5204    N        0.91917    0.12612    0.16515    1.000
    Si5205   Si       0.87726    0.11727    0.17286    1.000
    N5206    N        0.90382    0.01710    0.17009    1.000
    N5207    N        0.90189    0.02287    0.23663    1.000
    N5208    N        0.90834    0.08419    0.21906    1.000
    N5209    N        0.91854    0.18264    0.23125    1.000
    N5210    N        0.89523    0.24394    0.19556    1.000
    Si5211   Si       0.90672    0.20137    0.19438    1.000
    N5212    N        0.90906    0.10679    0.34462    1.000
    Si5213   Si       0.90817    0.06175    0.25942    1.000
    Si5214   Si       0.87497    0.08013    0.36094    1.000
    N5215    N        0.87410    0.04487    0.33361    1.000
    N5216    N        0.89047    0.13917    0.27659    1.000
    Si5217   Si       0.89674    0.14197    0.31956    1.000
    N5218    N        0.89448    0.21397    0.29243    1.000
    Si5219   Si       0.88982    0.17986    0.26445    1.000
    N5220    N        0.88717    0.21965    0.36644    1.000
    Si5221   Si       0.92509    0.24436    0.29290    1.000
    N5222    N        0.92546    0.17196    0.33135    1.000
    Si5223   Si       0.87237    0.21021    0.32838    1.000
    N5224    N        0.91635    0.04887    0.45721    1.000
    Si5225   Si       0.88276    0.02703    0.47445    1.000
    Si5226   Si       0.91616    0.08379    0.43231    1.000
    N5227    N        0.88224    0.07707    0.40457    1.000
    N5228    N        0.92022    0.12149    0.45189    1.000
    Si5229   Si       0.92696    0.12669    0.49482    1.000
    Si5230   Si       0.93090    0.15833    0.43174    1.000
    N5231    N        0.89830    0.18301    0.41590    1.000
    Si5232   Si       0.92060    0.24847    0.37098    1.000
    Si5233   Si       0.92083    0.18322    0.37463    1.000
    Si5234   Si       0.89464    0.24819    0.49329    1.000
    N5235    N        0.91184    0.09998    0.52558    1.000
    N5236    N        0.89565    0.02462    0.58732    1.000
    N5237    N        0.89126    0.02229    0.51781    1.000
    Si5238   Si       0.88029    0.12805    0.62047    1.000
    N5239    N        0.91406    0.16698    0.50392    1.000
    Si5240   Si       0.87387    0.17874    0.51420    1.000
    Si5241   Si       0.89765    0.05295    0.62221    1.000
    N5242    N        0.89975    0.05838    0.72172    1.000
    N5243    N        0.88919    0.02354    0.65525    1.000
    Si5244   Si       0.90813    0.09696    0.73893    1.000
    Si5245   Si       0.92711    0.02911    0.73570    1.000
    N5246    N        0.90778    0.19148    0.67858    1.000
    Si5247   Si       0.92617    0.16764    0.70978    1.000
    N5248    N        0.88960    0.24498    0.72112    1.000
    N5249    N        0.89827    0.13541    0.72405    1.000
    Si5250   Si       0.88785    0.22888    0.68040    1.000
    N5251    N        0.90767    0.25483    0.64899    1.000
    N5252    N        0.92231    0.13703    0.63085    1.000
    N5253    N        0.89070    0.09588    0.78041    1.000
    Si5254   Si       0.91172    0.03288    0.83975    1.000
    Si5255   Si       0.91540    0.10348    0.86207    1.000
    N5256    N        0.89090    0.06688    0.86090    1.000
    Si5257   Si       0.93092    0.09048    0.79644    1.000
    N5258    N        0.87601    0.01528    0.82430    1.000
    Si5259   Si       0.88834    0.16594    0.84331    1.000
    N5260    N        0.88592    0.23234    0.79172    1.000
    Si5261   Si       0.89426    0.21530    0.75362    1.000
    N5262    N        0.92782    0.18417    0.83284    1.000
    N5263    N        0.93080    0.19105    0.74721    1.000
    Si5264   Si       0.88639    0.01912    0.95528    1.000
    N5265    N        0.89162    0.05795    0.93029    1.000
    N5266    N        0.90212    0.12731    0.94006    1.000
    Si5267   Si       0.92177    0.08891    0.93123    1.000
    Si5268   Si       0.89800    0.15129    0.97499    1.000
    N5269    N        0.87992    0.25577    0.94767    1.000
    N5270    N        0.90995    0.19179    0.96248    1.000
    Si5271   Si       0.91002    0.23501    0.97258    1.000
    N5272    N        0.91458    0.20880    0.89572    1.000
    N5273    N        0.89252    0.13805    0.87445    1.000
    Si5274   Si       0.88235    0.34615    0.08904    1.000
    N5275    N        0.92191    0.32761    0.08478    1.000
    Si5276   Si       0.87684    0.32872    0.01697    1.000
    N5277    N        0.87984    0.38086    0.11664    1.000
    N5278    N        0.87055    0.29116    0.03782    1.000
    Si5279   Si       0.87516    0.46395    0.03171    1.000
    N5280    N        0.90714    0.41969    0.00285    1.000
    Si5281   Si       0.89450    0.39704    0.03900    1.000
    N5282    N        0.92127    0.47820    0.03098    1.000
    N5283    N        0.91930    0.50288    0.10030    1.000
    N5284    N        0.87211    0.42862    0.06099    1.000
    N5285    N        0.89918    0.30582    0.20575    1.000
    Si5286   Si       0.90175    0.27694    0.16769    1.000
    Si5287   Si       0.88571    0.37219    0.16121    1.000
    N5288    N        0.90823    0.36602    0.23475    1.000
    Si5289   Si       0.90100    0.27053    0.23196    1.000
    N5290    N        0.92749    0.35469    0.17106    1.000
    N5291    N        0.93129    0.43759    0.21879    1.000
    N5292    N        0.90588    0.47242    0.16381    1.000
    Si5293   Si       0.88334    0.49867    0.19087    1.000
    Si5294   Si       0.89806    0.40858    0.22638    1.000
    Si5295   Si       0.92146    0.43477    0.17665    1.000
    N5296    N        0.88300    0.41266    0.18283    1.000
    Si5297   Si       0.88771    0.34356    0.26678    1.000
    Si5298   Si       0.90182    0.37008    0.33951    1.000
    N5299    N        0.90763    0.30935    0.28095    1.000
    Si5300   Si       0.90631    0.30393    0.32387    1.000
    N5301    N        0.87948    0.36723    0.30160    1.000
    N5302    N        0.92648    0.26648    0.33155    1.000
    N5303    N        0.92708    0.33539    0.34293    1.000
    Si5304   Si       0.90677    0.43937    0.32039    1.000
    N5305    N        0.91243    0.47837    0.34261    1.000
    N5306    N        0.92292    0.45656    0.28474    1.000
    N5307    N        0.87484    0.36924    0.37429    1.000
    N5308    N        0.89099    0.27752    0.46280    1.000
    N5309    N        0.91659    0.34247    0.44271    1.000
    N5310    N        0.91126    0.27433    0.40485    1.000
    Si5311   Si       0.92269    0.29862    0.44098    1.000
    Si5312   Si       0.87799    0.35592    0.42279    1.000
    Si5313   Si       0.90334    0.42481    0.43224    1.000
    N5314    N        0.91972    0.50039    0.40958    1.000
    Si5315   Si       0.89213    0.48014    0.38098    1.000
    Si5316   Si       0.89367    0.48157    0.49379    1.000
    N5317    N        0.89206    0.43779    0.39146    1.000
    N5318    N        0.89750    0.44861    0.46658    1.000
    N5319    N        0.90207    0.30529    0.59151    1.000
    Si5320   Si       0.91079    0.34684    0.60249    1.000
    N5321    N        0.88910    0.33822    0.52626    1.000
    Si5322   Si       0.88475    0.30390    0.55299    1.000
    Si5323   Si       0.92190    0.36782    0.52997    1.000
    N5324    N        0.88622    0.26444    0.53489    1.000
    N5325    N        0.88055    0.37646    0.60572    1.000
    Si5326   Si       0.88195    0.27699    0.62050    1.000
    N5327    N        0.89403    0.49082    0.59292    1.000
    N5328    N        0.90489    0.40901    0.52343    1.000
    N5329    N        0.91874    0.48281    0.52791    1.000
    Si5330   Si       0.92009    0.45919    0.60828    1.000
    N5331    N        0.92327    0.34189    0.64338    1.000
    Si5332   Si       0.90288    0.34607    0.68193    1.000
    N5333    N        0.90805    0.30990    0.70415    1.000
    Si5334   Si       0.87537    0.28691    0.72271    1.000
    Si5335   Si       0.91419    0.46251    0.66971    1.000
    N5336    N        0.89714    0.45294    0.71059    1.000
    N5337    N        0.89739    0.43749    0.63765    1.000
    N5338    N        0.90156    0.38452    0.70550    1.000
    N5339    N        0.88493    0.50156    0.66314    1.000
    Si5340   Si       0.92492    0.41940    0.71859    1.000
    Si5341   Si       0.87905    0.47595    0.74167    1.000
    N5342    N        0.89440    0.36215    0.80618    1.000
    Si5343   Si       0.90262    0.32720    0.77908    1.000
    Si5344   Si       0.92291    0.37196    0.83638    1.000
    N5345    N        0.91994    0.29749    0.80465    1.000
    Si5346   Si       0.92250    0.29258    0.84831    1.000
    N5347    N        0.89184    0.47245    0.78453    1.000
    Si5348   Si       0.91388    0.49360    0.81424    1.000
    N5349    N        0.88390    0.50025    0.84616    1.000
    N5350    N        0.90223    0.39399    0.86668    1.000
    N5351    N        0.88707    0.28848    0.87296    1.000
    Si5352   Si       0.89358    0.28499    0.91743    1.000
    Si5353   Si       0.89250    0.34775    0.95553    1.000
    N5354    N        0.92051    0.36350    0.92593    1.000
    N5355    N        0.91135    0.33516    0.99351    1.000
    N5356    N        0.89367    0.42978    0.93110    1.000
    Si5357   Si       0.87839    0.42202    0.97065    1.000
    Si5358   Si       0.91917    0.40290    0.90911    1.000
    Si5359   Si       0.91193    0.46735    0.92234    1.000
    N5360    N        0.88246    0.49979    0.91574    1.000
    Si5361   Si       0.90354    0.59174    0.03686    1.000
    N5362    N        0.91101    0.55323    0.05365    1.000
    Si5363   Si       0.91349    0.61433    0.10076    1.000
    Si5364   Si       0.89943    0.54174    0.09330    1.000
    N5365    N        0.88450    0.61765    0.06856    1.000
    Si5366   Si       0.90845    0.52059    0.02730    1.000
    N5367    N        0.91176    0.57430    0.11898    1.000
    N5368    N        0.89560    0.71131    0.07774    1.000
    Si5369   Si       0.91945    0.74540    0.06842    1.000
    Si5370   Si       0.88196    0.68708    0.11087    1.000
    Si5371   Si       0.89716    0.73800    0.99920    1.000
    Si5372   Si       0.90593    0.56113    0.15887    1.000
    N5373    N        0.89450    0.59648    0.17955    1.000
    Si5374   Si       0.91910    0.61248    0.21020    1.000
    N5375    N        0.88734    0.62187    0.24058    1.000
    N5376    N        0.90951    0.50611    0.22971    1.000
    N5377    N        0.87239    0.53428    0.16610    1.000
    N5378    N        0.90347    0.65036    0.12314    1.000
    N5379    N        0.92128    0.71001    0.21631    1.000
    Si5380   Si       0.89617    0.71918    0.18125    1.000
    N5381    N        0.93426    0.70707    0.15061    1.000
    Si5382   Si       0.91272    0.56485    0.31615    1.000
    N5383    N        0.91998    0.52756    0.29491    1.000
    Si5384   Si       0.88729    0.52173    0.26676    1.000
    N5385    N        0.87733    0.57991    0.33828    1.000
    N5386    N        0.92573    0.59922    0.29391    1.000
    Si5387   Si       0.90521    0.63346    0.27688    1.000
    Si5388   Si       0.88651    0.69761    0.31295    1.000
    N5389    N        0.88645    0.71973    0.27721    1.000
    Si5390   Si       0.91911    0.73230    0.25317    1.000
    N5391    N        0.92523    0.69801    0.32972    1.000
    N5392    N        0.87532    0.65528    0.30335    1.000
    N5393    N        0.90503    0.75417    0.36739    1.000
    Si5394   Si       0.92501    0.71439    0.37001    1.000
    Si5395   Si       0.89809    0.57981    0.37531    1.000
    Si5396   Si       0.90269    0.53516    0.43348    1.000
    N5397    N        0.88498    0.58735    0.47864    1.000
    N5398    N        0.90550    0.61124    0.40430    1.000
    N5399    N        0.89030    0.51918    0.47255    1.000
    Si5400   Si       0.91548    0.60353    0.44925    1.000
    N5401    N        0.87754    0.55159    0.40255    1.000
    N5402    N        0.90053    0.75645    0.43760    1.000
    N5403    N        0.87846    0.64538    0.45367    1.000
    Si5404   Si       0.92052    0.73920    0.47116    1.000
    Si5405   Si       0.90546    0.66107    0.48116    1.000
    Si5406   Si       0.88653    0.65113    0.41051    1.000
    N5407    N        0.91654    0.68120    0.39927    1.000
    N5408    N        0.89781    0.70581    0.48423    1.000
    N5409    N        0.88098    0.53849    0.53875    1.000
    N5410    N        0.92721    0.60441    0.56121    1.000
    Si5411   Si       0.89770    0.55255    0.50153    1.000
    Si5412   Si       0.89467    0.63247    0.55700    1.000
    Si5413   Si       0.91187    0.51295    0.55757    1.000
    N5414    N        0.90412    0.58623    0.62294    1.000
    N5415    N        0.89172    0.65747    0.52309    1.000
    Si5416   Si       0.88939    0.70146    0.58804    1.000
    N5417    N        0.88518    0.65828    0.59119    1.000
    N5418    N        0.92741    0.71881    0.58268    1.000
    Si5419   Si       0.91064    0.57313    0.66374    1.000
    Si5420   Si       0.91687    0.61205    0.73421    1.000
    N5421    N        0.88664    0.51797    0.73013    1.000
    N5422    N        0.92147    0.60700    0.69139    1.000
    N5423    N        0.87262    0.56507    0.67971    1.000
    N5424    N        0.88594    0.65858    0.66333    1.000
    N5425    N        0.89260    0.73562    0.74016    1.000
    Si5426   Si       0.92806    0.64495    0.67078    1.000
    N5427    N        0.89488    0.65007    0.73272    1.000
    N5428    N        0.88890    0.75337    0.67226    1.000
    N5429    N        0.89034    0.58573    0.83274    1.000
    Si5430   Si       0.88820    0.54259    0.76557    1.000
    N5431    N        0.89419    0.58529    0.76035    1.000
    N5432    N        0.92414    0.53380    0.79230    1.000
    Si5433   Si       0.88081    0.60714    0.79597    1.000
    Si5434   Si       0.92828    0.56702    0.82649    1.000
    N5435    N        0.90882    0.63860    0.79350    1.000
    N5436    N        0.91557    0.70600    0.80127    1.000
    Si5437   Si       0.89805    0.67405    0.77129    1.000
    Si5438   Si       0.90514    0.71204    0.84338    1.000
    Si5439   Si       0.87974    0.73247    0.78195    1.000
    N5440    N        0.90435    0.67698    0.87148    1.000
    Si5441   Si       0.88903    0.54982    0.93017    1.000
    N5442    N        0.90075    0.58512    0.95087    1.000
    Si5443   Si       0.90489    0.51940    0.87933    1.000
    N5444    N        0.87744    0.62221    0.89608    1.000
    Si5445   Si       0.89764    0.62653    0.93618    1.000
    N5446    N        0.92514    0.53776    0.98999    1.000
    N5447    N        0.87652    0.55421    0.88818    1.000
    N5448    N        0.89620    0.69819    0.98053    1.000
    Si5449   Si       0.92329    0.75642    0.93047    1.000
    Si5450   Si       0.89195    0.80796    0.11009    1.000
    N5451    N        0.89163    0.78010    0.07725    1.000
    N5452    N        0.88878    0.85034    0.09809    1.000
    Si5453   Si       0.87958    0.89088    0.10590    1.000
    N5454    N        0.90295    0.89182    0.02537    1.000
    Si5455   Si       0.90147    0.99451    0.03340    1.000
    N5456    N        0.91942    0.90536    0.09295    1.000
    N5457    N        0.88413    0.95665    0.04559    1.000
    Si5458   Si       0.92417    0.94187    0.11792    1.000
    N5459    N        0.88485    0.96110    0.11852    1.000
    Si5460   Si       0.90199    0.84495    0.21251    1.000
    N5461    N        0.89612    0.76203    0.18212    1.000
    N5462    N        0.93295    0.77321    0.23989    1.000
    N5463    N        0.87057    0.95457    0.18640    1.000
    Si5464   Si       0.92845    0.90883    0.24279    1.000
    Si5465   Si       0.87866    0.98393    0.15605    1.000
    N5466    N        0.90683    0.88770    0.20909    1.000
    Si5467   Si       0.89539    0.91739    0.17802    1.000
    Si5468   Si       0.92488    0.98446    0.24208    1.000
    Si5469   Si       0.90994    0.78615    0.33909    1.000
    Si5470   Si       0.90458    0.86496    0.28955    1.000
    N5471    N        0.90855    0.83928    0.25518    1.000
    N5472    N        0.90424    0.90658    0.27666    1.000
    Si5473   Si       0.88671    0.94615    0.35832    1.000
    N5474    N        0.88105    0.96256    0.31888    1.000
    Si5475   Si       0.88893    0.00357    0.33812    1.000
    Si5476   Si       0.87884    0.94113    0.28132    1.000
    N5477    N        0.88576    0.96745    0.24815    1.000
    N5478    N        0.92862    0.93764    0.35976    1.000
    N5479    N        0.93317    0.00149    0.33183    1.000
    N5480    N        0.88094    0.81573    0.40421    1.000
    Si5481   Si       0.88303    0.77157    0.40250    1.000
    Si5482   Si       0.91978    0.83498    0.39849    1.000
    Si5483   Si       0.91638    0.81113    0.47299    1.000
    N5484    N        0.91769    0.87762    0.39432    1.000
    N5485    N        0.87170    0.81230    0.47112    1.000
    N5486    N        0.89463    0.93448    0.41880    1.000
    Si5487   Si       0.90410    0.97635    0.41567    1.000
    Si5488   Si       0.88141    0.89778    0.40258    1.000
    N5489    N        0.88162    0.99113    0.45282    1.000
    N5490    N        0.88194    0.98593    0.37881    1.000
    Si5491   Si       0.91067    0.86159    0.60178    1.000
    Si5492   Si       0.89136    0.85402    0.52931    1.000
    N5493    N        0.88699    0.77278    0.60264    1.000
    N5494    N        0.90583    0.87943    0.56158    1.000
    N5495    N        0.92352    0.84423    0.50287    1.000
    N5496    N        0.87217    0.81568    0.54078    1.000
    N5497    N        0.87520    0.83775    0.60515    1.000
    Si5498   Si       0.92868    0.76170    0.59609    1.000
    N5499    N        0.90086    0.92872    0.51448    1.000
    N5500    N        0.89962    0.94556    0.58679    1.000
    Si5501   Si       0.91483    0.92182    0.55455    1.000
    Si5502   Si       0.91940    0.98497    0.59132    1.000
    Si5503   Si       0.89492    0.83848    0.69678    1.000
    N5504    N        0.89854    0.82976    0.74114    1.000
    N5505    N        0.92581    0.80678    0.68895    1.000
    Si5506   Si       0.92838    0.76783    0.66966    1.000
    N5507    N        0.90248    0.88105    0.69692    1.000
    Si5508   Si       0.88370    0.92710    0.62257    1.000
    N5509    N        0.88123    0.94518    0.72735    1.000
    N5510    N        0.88745    0.95981    0.65149    1.000
    Si5511   Si       0.93005    0.89993    0.67051    1.000
    Si5512   Si       0.92499    0.97569    0.66291    1.000
    Si5513   Si       0.88269    0.90134    0.72989    1.000
    N5514    N        0.91189    0.89441    0.63021    1.000
    Si5515   Si       0.91749    0.96827    0.73458    1.000
    N5516    N        0.93254    0.99724    0.70398    1.000
    Si5517   Si       0.90124    0.85189    0.77732    1.000
    Si5518   Si       0.90330    0.78991    0.86804    1.000
    N5519    N        0.92928    0.77856    0.83357    1.000
    N5520    N        0.87099    0.87450    0.86403    1.000
    N5521    N        0.90623    0.89285    0.76430    1.000
    Si5522   Si       0.90031    0.90712    0.86138    1.000
    N5523    N        0.90426    0.92915    0.82492    1.000
    Si5524   Si       0.92633    0.92202    0.78822    1.000
    N5525    N        0.90614    0.00115    0.76082    1.000
    N5526    N        0.92352    0.82444    0.88252    1.000
    N5527    N        0.89102    0.76456    0.90294    1.000
    N5528    N        0.91272    0.83551    0.96760    1.000
    Si5529   Si       0.88027    0.80724    0.97416    1.000
    N5530    N        0.89468    0.76518    0.96476    1.000
    Si5531   Si       0.91637    0.87870    0.98404    1.000
    N5532    N        0.88886    0.99288    0.91974    1.000
    N5533    N        0.90984    0.00048    0.98879    1.000
    N5534    N        0.87872    0.92790    0.89463    1.000
    Si5535   Si       0.91456    0.92244    0.92123    1.000
    N5536    N        0.89533    0.90776    0.95838    1.000
    Si5537   Si       0.96889    0.10992    0.06510    1.000
    N5538    N        0.96531    0.08226    0.03299    1.000
    Si5539   Si       0.96742    0.03973    0.03733    1.000
    N5540    N        0.95205    0.03500    0.12045    1.000
    N5541    N        0.93562    0.01471    0.05093    1.000
    Si5542   Si       0.99118    0.05479    0.10935    1.000
    Si5543   Si       0.95782    0.10541    0.99634    1.000
    N5544    N        0.98649    0.25192    0.02817    1.000
    N5545    N        0.94149    0.19366    0.06085    1.000
    Si5546   Si       0.94941    0.23618    0.04234    1.000
    Si5547   Si       0.97695    0.17809    0.07815    1.000
    N5548    N        0.96968    0.15900    0.11697    1.000
    N5549    N        0.99400    0.14647    0.05373    1.000
    N5550    N        0.95937    0.06565    0.18384    1.000
    Si5551   Si       0.94501    0.02935    0.16373    1.000
    Si5552   Si       0.93943    0.10210    0.19625    1.000
    N5553    N        0.96553    0.13303    0.21378    1.000
    N5554    N        0.94078    0.19388    0.16751    1.000
    N5555    N        0.98564    0.20224    0.22800    1.000
    N5556    N        0.96892    0.25158    0.19400    1.000
    Si5557   Si       0.97308    0.24453    0.23606    1.000
    Si5558   Si       0.95961    0.16705    0.23911    1.000
    Si5559   Si       0.93269    0.16099    0.14066    1.000
    Si5560   Si       0.97933    0.21122    0.18056    1.000
    N5561    N        0.98121    0.09961    0.34374    1.000
    Si5562   Si       0.97499    0.07908    0.30594    1.000
    Si5563   Si       0.95361    0.02134    0.30082    1.000
    N5564    N        0.93819    0.06069    0.28982    1.000
    N5565    N        0.98937    0.03744    0.31707    1.000
    Si5566   Si       0.94640    0.10912    0.37188    1.000
    Si5567   Si       0.96561    0.18405    0.31222    1.000
    N5568    N        0.96471    0.22630    0.30383    1.000
    N5569    N        0.97509    0.15705    0.27936    1.000
    N5570    N        0.93585    0.25670    0.25352    1.000
    N5571    N        0.98340    0.04872    0.45700    1.000
    Si5572   Si       0.95012    0.02070    0.45095    1.000
    N5573    N        0.95283    0.08418    0.40684    1.000
    N5574    N        0.96105    0.17812    0.45580    1.000
    N5575    N        0.94807    0.21565    0.37907    1.000
    N5576    N        0.94365    0.14901    0.39008    1.000
    Si5577   Si       0.97319    0.25238    0.47504    1.000
    N5578    N        0.93633    0.23321    0.48949    1.000
    Si5579   Si       0.94795    0.19132    0.49589    1.000
    Si5580   Si       0.95199    0.09028    0.54002    1.000
    N5581    N        0.96227    0.11619    0.57306    1.000
    N5582    N        0.96411    0.05179    0.52728    1.000
    Si5583   Si       0.93647    0.01700    0.52501    1.000
    N5584    N        0.97055    0.12219    0.50876    1.000
    Si5585   Si       0.95303    0.10778    0.61622    1.000
    N5586    N        0.97816    0.19015    0.52818    1.000
    Si5587   Si       0.98528    0.14854    0.54926    1.000
    N5588    N        0.94127    0.06677    0.62369    1.000
    Si5589   Si       0.96360    0.02944    0.63283    1.000
    N5590    N        0.96790    0.04308    0.72999    1.000
    Si5591   Si       0.98535    0.08102    0.74199    1.000
    N5592    N        0.98866    0.02746    0.66729    1.000
    N5593    N        0.98981    0.11570    0.63799    1.000
    Si5594   Si       0.97661    0.01002    0.70361    1.000
    Si5595   Si       0.95108    0.24635    0.64575    1.000
    N5596    N        0.96661    0.24677    0.68715    1.000
    Si5597   Si       0.93639    0.17260    0.65088    1.000
    N5598    N        0.95719    0.20484    0.63116    1.000
    N5599    N        0.95874    0.15385    0.68507    1.000
    Si5600   Si       0.98308    0.24986    0.72678    1.000
    N5601    N        0.94764    0.10034    0.75693    1.000
    N5602    N        0.93785    0.05188    0.81094    1.000
    Si5603   Si       0.98239    0.05103    0.81583    1.000
    N5604    N        0.94014    0.00849    0.86613    1.000
    N5605    N        0.93513    0.11882    0.82687    1.000
    Si5606   Si       0.93921    0.21778    0.85919    1.000
    N5607    N        0.98289    0.16401    0.79191    1.000
    Si5608   Si       0.96893    0.19835    0.76921    1.000
    Si5609   Si       0.96089    0.15277    0.82591    1.000
    N5610    N        0.97023    0.23319    0.79474    1.000
    N5611    N        0.98126    0.14582    0.86426    1.000
    N5612    N        0.98360    0.21118    0.85899    1.000
    N5613    N        0.94814    0.26050    0.85681    1.000
    Si5614   Si       0.99024    0.25485    0.86990    1.000
    N5615    N        0.95019    0.07977    0.96205    1.000
    Si5616   Si       0.97771    0.04596    0.95465    1.000
    N5617    N        0.94342    0.09260    0.89211    1.000
    Si5618   Si       0.98131    0.10699    0.88248    1.000
    N5619    N        0.95768    0.01068    0.93671    1.000
    N5620    N        0.97651    0.02684    0.99600    1.000
    N5621    N        0.97813    0.18044    0.92460    1.000
    N5622    N        0.94633    0.23874    0.94890    1.000
    Si5623   Si       0.94013    0.19863    0.93119    1.000
    N5624    N        0.96899    0.32337    0.03724    1.000
    Si5625   Si       0.95738    0.35333    0.07097    1.000
    N5626    N        0.97640    0.35129    0.11300    1.000
    Si5627   Si       0.94396    0.29382    0.10047    1.000
    N5628    N        0.98683    0.28491    0.10594    1.000
    N5629    N        0.93465    0.26286    0.07214    1.000
    Si5630   Si       0.95338    0.32942    0.99674    1.000
    Si5631   Si       0.96724    0.41400    0.04820    1.000
    N5632    N        0.95738    0.44242    0.08084    1.000
    N5633    N        0.97351    0.43294    0.00932    1.000
    Si5634   Si       0.94164    0.48184    0.07036    1.000
    N5635    N        0.93355    0.38481    0.05441    1.000
    Si5636   Si       0.93504    0.45155    0.99729    1.000
    Si5637   Si       0.97041    0.43707    0.12162    1.000
    N5638    N        0.97515    0.50671    0.06089    1.000
    N5639    N        0.93548    0.28346    0.14321    1.000
    Si5640   Si       0.97693    0.27017    0.15714    1.000
    N5641    N        0.97217    0.32708    0.22478    1.000
    Si5642   Si       0.96234    0.37312    0.15101    1.000
    Si5643   Si       0.93130    0.33728    0.21100    1.000
    Si5644   Si       0.93278    0.49818    0.14210    1.000
    N5645    N        0.96939    0.49429    0.21199    1.000
    N5646    N        0.94499    0.41249    0.14720    1.000
    N5647    N        0.97085    0.47537    0.14260    1.000
    Si5648   Si       0.94093    0.47204    0.24613    1.000
    Si5649   Si       0.96963    0.33207    0.33465    1.000
    N5650    N        0.97602    0.30099    0.30725    1.000
    Si5651   Si       0.97366    0.26255    0.32657    1.000
    N5652    N        0.98796    0.37026    0.32121    1.000
    Si5653   Si       0.98808    0.30965    0.26414    1.000
    Si5654   Si       0.97115    0.40319    0.34567    1.000
    Si5655   Si       0.94164    0.49180    0.31007    1.000
    N5656    N        0.97750    0.50367    0.33488    1.000
    N5657    N        0.97383    0.48929    0.27354    1.000
    N5658    N        0.92930    0.40376    0.33531    1.000
    N5659    N        0.99006    0.43947    0.33504    1.000
    N5660    N        0.96230    0.28872    0.45531    1.000
    Si5661   Si       0.94891    0.36923    0.45701    1.000
    N5662    N        0.98505    0.35253    0.43937    1.000
    N5663    N        0.98453    0.39534    0.38721    1.000
    Si5664   Si       0.98627    0.46594    0.48280    1.000
    N5665    N        0.96691    0.49843    0.46129    1.000
    Si5666   Si       0.96271    0.49662    0.41746    1.000
    N5667    N        0.94317    0.40792    0.44004    1.000
    Si5668   Si       0.97840    0.42457    0.42013    1.000
    N5669    N        0.97429    0.46030    0.39703    1.000
    Si5670   Si       0.97919    0.34964    0.57502    1.000
    N5671    N        0.93690    0.35745    0.56875    1.000
    N5672    N        0.95486    0.37121    0.49997    1.000
    N5673    N        0.98669    0.34786    0.61951    1.000
    N5674    N        0.96901    0.43808    0.51112    1.000
    N5675    N        0.94008    0.44092    0.57539    1.000
    Si5676   Si       0.93276    0.44162    0.53338    1.000
    Si5677   Si       0.94695    0.31276    0.72431    1.000
    N5678    N        0.96931    0.33023    0.69214    1.000
    N5679    N        0.96803    0.28374    0.62762    1.000
    Si5680   Si       0.96349    0.32356    0.64950    1.000
    N5681    N        0.95430    0.27597    0.74802    1.000
    N5682    N        0.95040    0.43578    0.68587    1.000
    N5683    N        0.94624    0.47873    0.63651    1.000
    N5684    N        0.98930    0.50624    0.68835    1.000
    Si5685   Si       0.98515    0.48965    0.64901    1.000
    Si5686   Si       0.95575    0.27395    0.79084    1.000
    Si5687   Si       0.97406    0.33600    0.83017    1.000
    N5688    N        0.95912    0.37310    0.81261    1.000
    N5689    N        0.94083    0.33355    0.85910    1.000
    Si5690   Si       0.95512    0.37888    0.76868    1.000
    N5691    N        0.98591    0.30236    0.80441    1.000
    N5692    N        0.93748    0.34148    0.75416    1.000
    N5693    N        0.94040    0.41930    0.75847    1.000
    Si5694   Si       0.96080    0.45220    0.78139    1.000
    N5695    N        0.94452    0.46245    0.82067    1.000
    Si5696   Si       0.95921    0.45258    0.86105    1.000
    N5697    N        0.96921    0.48841    0.75648    1.000
    N5698    N        0.98769    0.35008    0.91153    1.000
    Si5699   Si       0.96726    0.27503    0.94029    1.000
    N5700    N        0.97642    0.29569    0.97888    1.000
    N5701    N        0.98062    0.36262    0.98555    1.000
    Si5702   Si       0.94603    0.33603    0.90443    1.000
    N5703    N        0.93528    0.29801    0.92170    1.000
    N5704    N        0.94134    0.48365    0.88630    1.000
    N5705    N        0.95531    0.42479    0.90086    1.000
    N5706    N        0.93525    0.47460    0.96082    1.000
    Si5707   Si       0.97031    0.61090    0.03965    1.000
    N5708    N        0.95042    0.61720    0.07904    1.000
    N5709    N        0.93766    0.60441    0.01231    1.000
    Si5710   Si       0.98261    0.62589    0.10695    1.000
    Si5711   Si       0.97353    0.72685    0.01237    1.000
    N5712    N        0.95667    0.74703    0.09323    1.000
    N5713    N        0.93308    0.74094    0.02599    1.000
    Si5714   Si       0.94306    0.52952    0.21224    1.000
    N5715    N        0.93992    0.57254    0.22263    1.000
    Si5716   Si       0.98053    0.58698    0.22958    1.000
    N5717    N        0.93587    0.53300    0.16858    1.000
    Si5718   Si       0.93180    0.66391    0.15453    1.000
    N5719    N        0.98775    0.68641    0.20964    1.000
    Si5720   Si       0.98479    0.65378    0.18474    1.000
    N5721    N        0.97140    0.64869    0.14341    1.000
    Si5722   Si       0.95011    0.68044    0.23220    1.000
    N5723    N        0.93591    0.65029    0.19649    1.000
    Si5724   Si       0.96314    0.73422    0.13544    1.000
    Si5725   Si       0.96270    0.62072    0.29020    1.000
    Si5726   Si       0.97453    0.54365    0.35761    1.000
    N5727    N        0.93493    0.56243    0.35493    1.000
    N5728    N        0.98901    0.59535    0.27036    1.000
    Si5729   Si       0.95619    0.68262    0.30562    1.000
    N5730    N        0.95750    0.71228    0.26727    1.000
    N5731    N        0.94215    0.65404    0.26606    1.000
    N5732    N        0.97632    0.64721    0.32002    1.000
    Si5733   Si       0.96182    0.53882    0.47592    1.000
    N5734    N        0.93644    0.56240    0.44618    1.000
    N5735    N        0.98543    0.52731    0.39602    1.000
    N5736    N        0.93953    0.63459    0.46746    1.000
    N5737    N        0.95471    0.71892    0.44952    1.000
    Si5738   Si       0.95300    0.68834    0.41836    1.000
    N5739    N        0.96380    0.72140    0.38849    1.000
    Si5740   Si       0.97907    0.74775    0.42569    1.000
    Si5741   Si       0.98413    0.63739    0.46425    1.000
    N5742    N        0.98215    0.65660    0.42414    1.000
    Si5743   Si       0.98354    0.71193    0.48248    1.000
    N5744    N        0.97375    0.58272    0.60082    1.000
    Si5745   Si       0.95501    0.57311    0.54852    1.000
    Si5746   Si       0.95753    0.54201    0.61300    1.000
    N5747    N        0.94061    0.55518    0.51116    1.000
    N5748    N        0.94388    0.53537    0.57272    1.000
    Si5749   Si       0.93586    0.60529    0.60449    1.000
    N5750    N        0.98856    0.60045    0.53757    1.000
    N5751    N        0.96120    0.72071    0.51854    1.000
    N5752    N        0.97121    0.66197    0.56875    1.000
    Si5753   Si       0.96020    0.70287    0.55829    1.000
    Si5754   Si       0.97468    0.66187    0.61096    1.000
    N5755    N        0.94603    0.54878    0.65515    1.000
    N5756    N        0.96415    0.55384    0.72530    1.000
    Si5757   Si       0.97839    0.54946    0.68443    1.000
    Si5758   Si       0.97560    0.70636    0.67916    1.000
    Si5759   Si       0.96846    0.66045    0.73353    1.000
    N5760    N        0.97989    0.69721    0.63606    1.000
    Si5761   Si       0.93610    0.73665    0.73578    1.000
    N5762    N        0.94547    0.63715    0.63027    1.000
    N5763    N        0.95953    0.66625    0.69184    1.000
    N5764    N        0.95173    0.74098    0.69522    1.000
    N5765    N        0.95749    0.59968    0.82320    1.000
    Si5766   Si       0.95699    0.52890    0.76130    1.000
    N5767    N        0.95728    0.62017    0.74913    1.000
    Si5768   Si       0.98782    0.60474    0.85421    1.000
    N5769    N        0.93750    0.54099    0.85928    1.000
    Si5770   Si       0.95092    0.62945    0.79306    1.000
    Si5771   Si       0.98646    0.58475    0.74753    1.000
    N5772    N        0.98936    0.55395    0.78184    1.000
    N5773    N        0.97758    0.66409    0.79511    1.000
    Si5774   Si       0.95817    0.70336    0.79145    1.000
    N5775    N        0.98251    0.73138    0.81201    1.000
    N5776    N        0.94109    0.72326    0.86445    1.000
    Si5777   Si       0.96369    0.75321    0.84458    1.000
    N5778    N        0.94947    0.69692    0.74857    1.000
    Si5779   Si       0.95937    0.56852    0.91132    1.000
    N5780    N        0.96571    0.60523    0.89195    1.000
    N5781    N        0.97151    0.58276    0.95153    1.000
    Si5782   Si       0.94601    0.51668    0.95965    1.000
    Si5783   Si       0.96684    0.51738    0.87815    1.000
    Si5784   Si       0.93571    0.57834    0.97714    1.000
    N5785    N        0.98766    0.52096    0.96792    1.000
    N5786    N        0.93166    0.53617    0.92404    1.000
    Si5787   Si       0.93275    0.68757    0.96190    1.000
    N5788    N        0.97841    0.66917    0.89205    1.000
    Si5789   Si       0.97292    0.63687    0.92384    1.000
    N5790    N        0.93425    0.65040    0.93893    1.000
    N5791    N        0.96607    0.69114    0.98874    1.000
    Si5792   Si       0.94156    0.69029    0.89393    1.000
    N5793    N        0.93840    0.71641    0.92892    1.000
    N5794    N        0.95197    0.85599    0.06664    1.000
    Si5795   Si       0.93414    0.85710    0.10575    1.000
    N5796    N        0.93220    0.81457    0.12475    1.000
    Si5797   Si       0.98903    0.83548    0.06035    1.000
    Si5798   Si       0.97803    0.92493    0.00126    1.000
    Si5799   Si       0.93586    0.89433    0.05430    1.000
    N5800    N        0.96565    0.92229    0.04334    1.000
    N5801    N        0.95538    0.96420    0.09744    1.000
    Si5802   Si       0.95480    0.00610    0.08825    1.000
    Si5803   Si       0.98365    0.93887    0.07917    1.000
    N5804    N        0.96403    0.86698    0.13648    1.000
    Si5805   Si       0.96166    0.82571    0.15643    1.000
    N5806    N        0.96494    0.76165    0.17078    1.000
    Si5807   Si       0.93207    0.77880    0.19691    1.000
    N5808    N        0.93436    0.82186    0.19172    1.000
    Si5809   Si       0.96084    0.95113    0.18559    1.000
    N5810    N        0.94368    0.94842    0.22752    1.000
    N5811    N        0.96772    0.99338    0.17592    1.000
    N5812    N        0.93097    0.93506    0.15936    1.000
    Si5813   Si       0.95911    0.82636    0.33028    1.000
    N5814    N        0.94212    0.86191    0.30937    1.000
    Si5815   Si       0.93980    0.80955    0.26381    1.000
    N5816    N        0.98026    0.82568    0.25757    1.000
    N5817    N        0.93904    0.79615    0.30452    1.000
    N5818    N        0.93151    0.81643    0.36256    1.000
    N5819    N        0.97836    0.89148    0.35260    1.000
    N5820    N        0.97194    0.94094    0.30833    1.000
    N5821    N        0.95759    0.99160    0.26987    1.000
    Si5822   Si       0.95755    0.96488    0.34165    1.000
    Si5823   Si       0.97608    0.94990    0.26242    1.000
    Si5824   Si       0.96896    0.89795    0.30662    1.000
    N5825    N        0.96951    0.90248    0.25855    1.000
    N5826    N        0.98913    0.97146    0.37119    1.000
    N5827    N        0.93892    0.82372    0.43873    1.000
    Si5828   Si       0.98170    0.82135    0.44139    1.000
    N5829    N        0.93207    0.77514    0.49065    1.000
    N5830    N        0.98176    0.88651    0.48398    1.000
    N5831    N        0.95190    0.99931    0.48857    1.000
    N5832    N        0.97131    0.92126    0.41517    1.000
    Si5833   Si       0.97804    0.96412    0.41302    1.000
    N5834    N        0.94368    0.98950    0.42103    1.000
    Si5835   Si       0.94862    0.90622    0.38137    1.000
    N5836    N        0.94633    0.83707    0.60791    1.000
    Si5837   Si       0.96673    0.81950    0.57533    1.000
    N5838    N        0.94626    0.78474    0.56081    1.000
    N5839    N        0.97729    0.84864    0.54597    1.000
    Si5840   Si       0.96617    0.85047    0.50502    1.000
    Si5841   Si       0.95977    0.76404    0.52422    1.000
    Si5842   Si       0.98484    0.88631    0.56777    1.000
    N5843    N        0.95870    0.91992    0.56056    1.000
    N5844    N        0.94688    0.98794    0.55552    1.000
    Si5845   Si       0.97761    0.95522    0.55096    1.000
    Si5846   Si       0.97624    0.85529    0.63536    1.000
    N5847    N        0.94953    0.76963    0.63204    1.000
    N5848    N        0.97684    0.81962    0.73501    1.000
    Si5849   Si       0.93571    0.80862    0.73229    1.000
    N5850    N        0.96818    0.88130    0.67056    1.000
    Si5851   Si       0.98738    0.78860    0.63102    1.000
    Si5852   Si       0.98673    0.92016    0.68742    1.000
    N5853    N        0.94376    0.99072    0.62678    1.000
    N5854    N        0.94591    0.94049    0.67874    1.000
    Si5855   Si       0.97315    0.86084    0.80589    1.000
    Si5856   Si       0.94444    0.79441    0.79636    1.000
    N5857    N        0.98230    0.85454    0.84858    1.000
    N5858    N        0.93949    0.77455    0.75872    1.000
    N5859    N        0.93593    0.83776    0.79771    1.000
    N5860    N        0.98856    0.79984    0.80199    1.000
    N5861    N        0.97795    0.95063    0.85218    1.000
    N5862    N        0.96177    0.90255    0.80375    1.000
    N5863    N        0.94470    0.94940    0.76055    1.000
    Si5864   Si       0.98267    0.99421    0.86211    1.000
    Si5865   Si       0.98687    0.94962    0.75281    1.000
    Si5866   Si       0.95322    0.85557    0.88090    1.000
    N5867    N        0.97715    0.81910    0.98386    1.000
    Si5868   Si       0.95095    0.82099    0.94912    1.000
    N5869    N        0.95702    0.78275    0.92960    1.000
    N5870    N        0.97157    0.84768    0.91997    1.000
    Si5871   Si       0.99072    0.85921    0.98940    1.000
    Si5872   Si       0.95116    0.99455    0.98011    1.000
    N5873    N        0.94564    0.95405    0.91327    1.000
    N5874    N        0.95878    0.88825    0.98734    1.000
    N5875    N        0.93589    0.89889    0.88773    1.000
    Si5876   Si       0.97117    0.92801    0.88856    1.000
    N5877    N        0.96726    0.95513    0.97475    1.000
    Si5878   Si       0.98875    0.96919    0.93380    1.000
    Si5879   Si       0.93061    0.99440    0.90534    1.000
