# CIF file generated by openbabel 3.1.1, see https://openbabel.org
data_I
_chemical_name_common '3.01-98.aims'
_cell_length_a 39.9329
_cell_length_b 39.9329
_cell_length_c 39.9329
_cell_angle_alpha 90
_cell_angle_beta 90
_cell_angle_gamma 90
loop_
    _atom_site_label
    _atom_site_type_symbol
    _atom_site_fract_x
    _atom_site_fract_y
    _atom_site_fract_z
    _atom_site_occupancy
    N0       N        0.08468    0.07608    0.02472    1.000
    Si1      Si       0.10038    0.11268    0.00765    1.000
    N2       N        0.05093    0.02252    0.00361    1.000
    N3       N        0.99007    0.03537    0.03675    1.000
    N4       N        0.11167    0.00987    0.03728    1.000
    Si5      Si       0.09474    0.04744    0.05568    1.000
    Si6      Si       0.16768    0.09569    0.01099    1.000
    Si7      Si       0.20299    0.03302    0.02685    1.000
    N8       N        0.19633    0.06665    0.99767    1.000
    N9       N        0.09854    0.20450    0.03052    1.000
    Si10     Si       0.06542    0.18718    0.00913    1.000
    N11      N        0.04751    0.14877    0.02309    1.000
    N12      N        0.03531    0.21600    0.02261    1.000
    Si13     Si       0.09344    0.24336    0.04993    1.000
    Si14     Si       0.03890    0.25475    0.00227    1.000
    N15      N        0.18666    0.13503    0.00862    1.000
    N16      N        0.11635    0.14188    0.03488    1.000
    N17      N        0.22564    0.24244    0.02743    1.000
    Si18     Si       0.13503    0.17908    0.02443    1.000
    N19      N        0.16817    0.19870    0.04298    1.000
    Si20     Si       0.22047    0.13638    0.03236    1.000
    Si21     Si       0.20819    0.20154    0.02700    1.000
    N22      N        0.06270    0.03297    0.08202    1.000
    N23      N        0.02623    0.10995    0.08198    1.000
    N24      N        0.99928    0.01448    0.10731    1.000
    N25      N        0.08565    0.12661    0.08868    1.000
    N26      N        0.11778    0.05608    0.08952    1.000
    Si27     Si       0.15864    0.05915    0.07921    1.000
    N28      N        0.22158    0.11671    0.07117    1.000
    Si29     Si       0.19081    0.11460    0.10281    1.000
    Si30     Si       0.12616    0.12271    0.07303    1.000
    N31      N        0.17945    0.02639    0.06104    1.000
    N32      N        0.15492    0.09178    0.05194    1.000
    N33      N        0.03053    0.17731    0.08306    1.000
    N34      N        0.06652    0.23836    0.08424    1.000
    Si35     Si       0.05139    0.14359    0.06565    1.000
    Si36     Si       0.02873    0.21978    0.06695    1.000
    N37      N        0.99270    0.24376    0.07512    1.000
    N38      N        0.15409    0.13705    0.10350    1.000
    Si39     Si       0.15881    0.22570    0.07653    1.000
    N40      N        0.19487    0.23114    0.10249    1.000
    N41      N        0.13514    0.21481    0.11284    1.000
    N42      N        0.13570    0.25650    0.05766    1.000
    N43      N        0.06816    0.07359    0.13642    1.000
    N44      N        0.09653    0.01272    0.14514    1.000
    Si45     Si       0.08843    0.04122    0.11587    1.000
    Si46     Si       0.05453    0.10770    0.11478    1.000
    N47      N        0.21732    0.05557    0.16462    1.000
    Si48     Si       0.17784    0.04840    0.14840    1.000
    N49      N        0.21652    0.12113    0.13860    1.000
    N50      N        0.18037    0.07224    0.11247    1.000
    N51      N        0.99109    0.19538    0.14841    1.000
    N52      N        0.01793    0.25675    0.13584    1.000
    N53      N        0.05870    0.19897    0.14686    1.000
    Si54     Si       0.01151    0.16546    0.12252    1.000
    Si55     Si       0.02371    0.22094    0.16109    1.000
    Si56     Si       0.10040    0.20890    0.13795    1.000
    Si57     Si       0.07127    0.16062    0.16482    1.000
    N58      N        0.03834    0.13865    0.14512    1.000
    N59      N        0.09284    0.25131    0.15034    1.000
    N60      N        0.11143    0.17085    0.15544    1.000
    Si61     Si       0.17260    0.21974    0.13901    1.000
    Si62     Si       0.19888    0.14466    0.17052    1.000
    N63      N        0.18246    0.18008    0.15134    1.000
    Si64     Si       0.14830    0.15502    0.14237    1.000
    N65      N        0.09489    0.10865    0.19197    1.000
    N66      N        0.08413    0.04443    0.20597    1.000
    N67      N        0.02810    0.08732    0.18993    1.000
    Si68     Si       0.99833    0.06019    0.20561    1.000
    Si69     Si       0.06843    0.07729    0.17983    1.000
    Si70     Si       0.02015    0.13033    0.18504    1.000
    Si71     Si       0.07944    0.12928    0.22541    1.000
    Si72     Si       0.11540    0.02478    0.18295    1.000
    Si73     Si       0.13808    0.09431    0.19266    1.000
    Si74     Si       0.23743    0.04793    0.20111    1.000
    N75      N        0.14510    0.05547    0.17496    1.000
    N76      N        0.16039    0.12589    0.17337    1.000
    N77      N        0.05076    0.15840    0.20484    1.000
    N78      N        0.02606    0.22756    0.20451    1.000
    Si79     Si       0.04171    0.19436    0.22932    1.000
    Si80     Si       0.16788    0.23530    0.21610    1.000
    N81      N        0.22223    0.14464    0.20685    1.000
    N82      N        0.20455    0.21137    0.22135    1.000
    N83      N        0.16013    0.24467    0.17358    1.000
    N84      N        0.06659    0.09722    0.25082    1.000
    N85      N        0.08598    0.03324    0.27785    1.000
    N86      N        0.00321    0.12037    0.27517    1.000
    Si87     Si       0.06455    0.05264    0.24432    1.000
    Si88     Si       0.99815    0.02834    0.26854    1.000
    N89      N        0.02324    0.04342    0.23793    1.000
    Si90     Si       0.04466    0.11374    0.28707    1.000
    Si91     Si       0.16947    0.05023    0.25006    1.000
    N92      N        0.14349    0.01534    0.24782    1.000
    Si93     Si       0.14675    0.12573    0.25856    1.000
    N94      N        0.15037    0.08904    0.23479    1.000
    N95      N        0.20560    0.03798    0.23063    1.000
    N96      N        0.07260    0.20118    0.25831    1.000
    N97      N        0.00666    0.19007    0.25440    1.000
    N98      N        0.11206    0.14828    0.24523    1.000
    Si99     Si       0.11347    0.18924    0.25794    1.000
    Si100    Si       0.00561    0.16287    0.28755    1.000
    N101     N        0.13648    0.21375    0.23310    1.000
    N102     N        0.23592    0.25054    0.26736    1.000
    N103     N        0.18012    0.15494    0.26230    1.000
    Si104    Si       0.21298    0.17273    0.23973    1.000
    N105     N        0.05411    0.08281    0.31642    1.000
    Si106    Si       0.08153    0.04914    0.31834    1.000
    N107     N        0.06182    0.01806    0.34305    1.000
    Si108    Si       0.01868    0.00673    0.33985    1.000
    N109     N        0.12005    0.06229    0.33629    1.000
    N110     N        0.15030    0.11587    0.29943    1.000
    Si111    Si       0.15895    0.08019    0.32175    1.000
    Si112    Si       0.19794    0.01629    0.30723    1.000
    N113     N        0.22029    0.02870    0.34229    1.000
    N114     N        0.22324    0.12195    0.30557    1.000
    N115     N        0.17820    0.05344    0.29373    1.000
    Si116    Si       0.07089    0.19336    0.30208    1.000
    N117     N        0.04750    0.20729    0.33562    1.000
    N118     N        0.05017    0.15535    0.29846    1.000
    N119     N        0.11544    0.19164    0.30243    1.000
    Si120    Si       0.14288    0.19674    0.33547    1.000
    Si121    Si       0.18523    0.14144    0.30519    1.000
    N122     N        0.18157    0.17626    0.33197    1.000
    N123     N        0.15246    0.23841    0.34128    1.000
    N124     N        0.22025    0.23267    0.33227    1.000
    N125     N        0.06221    0.12215    0.38920    1.000
    N126     N        0.09313    0.06561    0.40064    1.000
    Si127    Si       0.02290    0.12565    0.40510    1.000
    N128     N        0.99037    0.09538    0.39997    1.000
    N129     N        0.22176    0.05390    0.40310    1.000
    N130     N        0.18754    0.09276    0.35591    1.000
    Si131    Si       0.12329    0.04856    0.37770    1.000
    Si132    Si       0.22164    0.06750    0.36295    1.000
    Si133    Si       0.17117    0.10357    0.39459    1.000
    N134     N        0.13622    0.12695    0.39767    1.000
    N135     N        0.15672    0.06262    0.40422    1.000
    Si136    Si       0.05576    0.23899    0.36299    1.000
    N137     N        0.00303    0.15246    0.37849    1.000
    N138     N        0.07888    0.22978    0.40002    1.000
    N139     N        0.00273    0.22430    0.38170    1.000
    Si140    Si       0.01194    0.18839    0.35527    1.000
    N141     N        0.12565    0.19254    0.37501    1.000
    N142     N        0.20878    0.19413    0.39496    1.000
    Si143    Si       0.21389    0.19311    0.35255    1.000
    Si144    Si       0.11941    0.23780    0.37618    1.000
    Si145    Si       0.08573    0.05552    0.44234    1.000
    N146     N        0.04124    0.04909    0.44704    1.000
    N147     N        0.02709    0.12665    0.44612    1.000
    N148     N        0.09201    0.09710    0.45680    1.000
    Si149    Si       0.09582    0.11612    0.41519    1.000
    Si150    Si       0.01587    0.01507    0.44335    1.000
    N151     N        0.10459    0.01801    0.45507    1.000
    Si152    Si       0.02840    0.08694    0.46357    1.000
    N153     N        0.17607    0.00544    0.44095    1.000
    Si154    Si       0.20828    0.10922    0.46074    1.000
    Si155    Si       0.18840    0.04658    0.42901    1.000
    N156     N        0.19981    0.12313    0.42155    1.000
    Si157    Si       0.06032    0.22428    0.43764    1.000
    N158     N        0.03024    0.19439    0.44093    1.000
    N159     N        0.09774    0.15803    0.43593    1.000
    Si160    Si       0.99872    0.22307    0.42600    1.000
    N161     N        0.02761    0.25399    0.43797    1.000
    N162     N        0.20480    0.25635    0.43500    1.000
    N163     N        0.15697    0.19268    0.44225    1.000
    Si164    Si       0.13669    0.23041    0.44960    1.000
    Si165    Si       0.19610    0.21425    0.43109    1.000
    N166     N        0.21774    0.18488    0.45894    1.000
    Si167    Si       0.22234    0.16016    0.41891    1.000
    Si168    Si       0.13181    0.16963    0.41061    1.000
    N169     N        0.14278    0.24830    0.41094    1.000
    N170     N        0.04561    0.09154    0.50256    1.000
    Si171    Si       0.08132    0.11548    0.49583    1.000
    N172     N        0.11230    0.10460    0.52270    1.000
    Si173    Si       0.18452    0.05574    0.50643    1.000
    N174     N        0.15288    0.02452    0.50747    1.000
    Si175    Si       0.15252    0.12241    0.51849    1.000
    N176     N        0.18818    0.13212    0.49017    1.000
    N177     N        0.19594    0.06826    0.46735    1.000
    N178     N        0.99485    0.15937    0.49394    1.000
    Si179    Si       0.03023    0.16152    0.46856    1.000
    Si180    Si       0.09246    0.23895    0.50478    1.000
    Si181    Si       0.10019    0.17550    0.47444    1.000
    N182     N        0.06593    0.15766    0.49573    1.000
    N183     N        0.09677    0.21833    0.46466    1.000
    Si184    Si       0.17514    0.17288    0.47881    1.000
    Si185    Si       0.19660    0.24104    0.52504    1.000
    N186     N        0.13390    0.15978    0.49692    1.000
    N187     N        0.17269    0.20587    0.51027    1.000
    N188     N        0.22922    0.24080    0.49638    1.000
    Si189    Si       0.07023    0.03126    0.56538    1.000
    N190     N        0.05915    0.07665    0.57030    1.000
    Si191    Si       0.10229    0.08591    0.56036    1.000
    Si192    Si       0.03280    0.06843    0.53593    1.000
    N193     N        0.04753    0.02664    0.52937    1.000
    N194     N        0.10997    0.04308    0.55683    1.000
    N195     N        0.99072    0.06572    0.54474    1.000
    N196     N        0.17350    0.08482    0.53709    1.000
    Si197    Si       0.19056    0.06386    0.57375    1.000
    N198     N        0.17346    0.02425    0.57477    1.000
    Si199    Si       0.14160    0.01398    0.54742    1.000
    N200     N        0.22655    0.05118    0.52510    1.000
    Si201    Si       0.05786    0.17875    0.53327    1.000
    N202     N        0.04953    0.15908    0.57094    1.000
    N203     N        0.02269    0.20592    0.53308    1.000
    Si204    Si       0.02365    0.24976    0.52794    1.000
    N205     N        0.09412    0.20274    0.53101    1.000
    N206     N        0.14921    0.20683    0.57126    1.000
    N207     N        0.21447    0.24372    0.56528    1.000
    N208     N        0.15814    0.14745    0.55359    1.000
    Si209    Si       0.13620    0.18920    0.53280    1.000
    Si210    Si       0.04395    0.09216    0.60860    1.000
    N211     N        0.00616    0.10882    0.59580    1.000
    N212     N        0.03649    0.05810    0.63406    1.000
    N213     N        0.10611    0.05326    0.63570    1.000
    N214     N        0.05729    0.12768    0.63118    1.000
    Si215    Si       0.09592    0.01192    0.62444    1.000
    N216     N        0.10620    0.11949    0.58653    1.000
    N217     N        0.16260    0.08562    0.59972    1.000
    Si218    Si       0.14858    0.06526    0.63527    1.000
    N219     N        0.23132    0.06620    0.58886    1.000
    Si220    Si       0.14722    0.12416    0.58752    1.000
    N221     N        0.17257    0.02926    0.64124    1.000
    N222     N        0.09480    0.18447    0.62279    1.000
    N223     N        0.03374    0.23205    0.61571    1.000
    Si224    Si       0.07902    0.15046    0.60107    1.000
    Si225    Si       0.07435    0.22176    0.63498    1.000
    N226     N        0.09852    0.24955    0.60673    1.000
    Si227    Si       0.00997    0.15360    0.59100    1.000
    N228     N        0.99333    0.16966    0.62860    1.000
    N229     N        0.15282    0.21575    0.63625    1.000
    Si230    Si       0.17771    0.17665    0.58384    1.000
    N231     N        0.21824    0.18165    0.59386    1.000
    N232     N        0.16184    0.15247    0.61786    1.000
    Si233    Si       0.22827    0.17980    0.63747    1.000
    Si234    Si       0.14006    0.23621    0.59894    1.000
    Si235    Si       0.06940    0.05306    0.66097    1.000
    Si236    Si       0.99882    0.04190    0.64961    1.000
    N237     N        0.05764    0.07922    0.69292    1.000
    N238     N        0.07648    0.01041    0.66398    1.000
    N239     N        0.00903    0.13404    0.68345    1.000
    N240     N        0.16535    0.09076    0.66597    1.000
    Si241    Si       0.18549    0.01345    0.68036    1.000
    Si242    Si       0.17529    0.13110    0.65496    1.000
    N243     N        0.22469    0.02710    0.69500    1.000
    Si244    Si       0.04787    0.14992    0.66937    1.000
    N245     N        0.04425    0.19506    0.66357    1.000
    N246     N        0.08652    0.24970    0.67101    1.000
    Si247    Si       0.00873    0.20797    0.64298    1.000
    N248     N        0.21464    0.14440    0.65873    1.000
    Si249    Si       0.13332    0.17825    0.63971    1.000
    N250     N        0.13901    0.15218    0.67383    1.000
    N251     N        0.21889    0.21890    0.65334    1.000
    Si252    Si       0.17878    0.23269    0.66772    1.000
    N253     N        0.15178    0.21788    0.69957    1.000
    Si254    Si       0.08805    0.07218    0.72378    1.000
    N255     N        0.09287    0.02953    0.72534    1.000
    N256     N        0.00041    0.09438    0.74294    1.000
    N257     N        0.02095    0.03020    0.75059    1.000
    Si258    Si       0.01564    0.09412    0.70208    1.000
    Si259    Si       0.05644    0.00958    0.74009    1.000
    Si260    Si       0.13245    0.01455    0.73494    1.000
    N261     N        0.12275    0.09766    0.71574    1.000
    N262     N        0.19999    0.09296    0.72376    1.000
    Si263    Si       0.23184    0.06249    0.72070    1.000
    Si264    Si       0.21972    0.12841    0.73879    1.000
    Si265    Si       0.16281    0.07882    0.70671    1.000
    N266     N        0.16125    0.03519    0.70969    1.000
    Si267    Si       0.04967    0.23528    0.75169    1.000
    N268     N        0.08660    0.21765    0.73201    1.000
    N269     N        0.03038    0.19268    0.74340    1.000
    Si270    Si       0.07072    0.17700    0.73819    1.000
    N271     N        0.07611    0.14935    0.70418    1.000
    N272     N        0.02065    0.25468    0.72593    1.000
    N273     N        0.20586    0.16981    0.73779    1.000
    Si274    Si       0.16762    0.18888    0.72947    1.000
    Si275    Si       0.11296    0.23895    0.70441    1.000
    Si276    Si       0.11789    0.13892    0.70796    1.000
    N277     N        0.13663    0.15924    0.74123    1.000
    Si278    Si       0.09390    0.04262    0.78494    1.000
    N279     N        0.01518    0.07654    0.80879    1.000
    Si280    Si       0.99730    0.11737    0.81305    1.000
    Si281    Si       0.02560    0.06880    0.76684    1.000
    N282     N        0.06898    0.07257    0.76446    1.000
    N283     N        0.12130    0.11313    0.80217    1.000
    Si284    Si       0.16324    0.02007    0.80841    1.000
    N285     N        0.13537    0.03472    0.77712    1.000
    N286     N        0.22876    0.11562    0.77890    1.000
    Si287    Si       0.04917    0.18025    0.80286    1.000
    N288     N        0.01161    0.15707    0.79532    1.000
    N289     N        0.08165    0.16633    0.77826    1.000
    N290     N        0.04459    0.22478    0.79768    1.000
    Si291    Si       0.00252    0.23701    0.81177    1.000
    Si292    Si       0.07730    0.24982    0.81547    1.000
    Si293    Si       0.99483    0.18104    0.76304    1.000
    Si294    Si       0.12218    0.15048    0.78143    1.000
    Si295    Si       0.15040    0.22039    0.79997    1.000
    N296     N        0.14346    0.17770    0.80723    1.000
    N297     N        0.17486    0.21674    0.76395    1.000
    Si298    Si       0.22467    0.14155    0.81467    1.000
    Si299    Si       0.21584    0.20122    0.76770    1.000
    N300     N        0.21711    0.18338    0.80760    1.000
    N301     N        0.11441    0.24274    0.79643    1.000
    N302     N        0.07056    0.10122    0.85588    1.000
    Si303    Si       0.04981    0.06984    0.83907    1.000
    N304     N        0.02446    0.04938    0.86665    1.000
    N305     N        0.08734    0.05217    0.82673    1.000
    N306     N        0.00615    0.12350    0.85568    1.000
    Si307    Si       0.99366    0.03679    0.83545    1.000
    Si308    Si       0.11207    0.10308    0.84235    1.000
    Si309    Si       0.11621    0.03812    0.85718    1.000
    N310     N        0.14113    0.07532    0.85474    1.000
    Si311    Si       0.18328    0.08298    0.84845    1.000
    N312     N        0.19003    0.12460    0.83269    1.000
    Si313    Si       0.23165    0.03329    0.84043    1.000
    N314     N        0.19313    0.04778    0.82326    1.000
    Si315    Si       0.04585    0.13299    0.86920    1.000
    N316     N        0.00181    0.21605    0.85126    1.000
    N317     N        0.05406    0.17142    0.84627    1.000
    N318     N        0.07579    0.23257    0.85975    1.000
    Si319    Si       0.04127    0.20607    0.86708    1.000
    N320     N        0.18163    0.23668    0.82707    1.000
    N321     N        0.12633    0.14099    0.86233    1.000
    N322     N        0.18105    0.18336    0.86835    1.000
    Si323    Si       0.16026    0.15657    0.84082    1.000
    Si324    Si       0.20681    0.20601    0.84362    1.000
    N325     N        0.24179    0.21480    0.86510    1.000
    Si326    Si       0.01640    0.04684    0.90903    1.000
    N327     N        0.03442    0.08541    0.92065    1.000
    N328     N        0.10334    0.03219    0.89675    1.000
    Si329    Si       0.07562    0.02654    0.93134    1.000
    N330     N        0.03742    0.01185    0.92202    1.000
    Si331    Si       0.06946    0.10498    0.93183    1.000
    N332     N        0.11261    0.10616    0.92037    1.000
    Si333    Si       0.22935    0.05311    0.91326    1.000
    Si334    Si       0.21320    0.11863    0.91101    1.000
    N335     N        0.20734    0.08494    0.88449    1.000
    Si336    Si       0.13535    0.01425    0.92230    1.000
    N337     N        0.22243    0.02214    0.88105    1.000
    N338     N        0.06466    0.14505    0.90976    1.000
    N339     N        0.03952    0.20590    0.91092    1.000
    Si340    Si       0.02923    0.24476    0.92625    1.000
    Si341    Si       0.10821    0.14690    0.90234    1.000
    Si342    Si       0.04468    0.17324    0.93739    1.000
    N343     N        0.99039    0.24974    0.93759    1.000
    Si344    Si       0.16715    0.18444    0.91012    1.000
    N345     N        0.18692    0.14907    0.93033    1.000
    N346     N        0.12328    0.18226    0.91822    1.000
    N347     N        0.17835    0.21963    0.93046    1.000
    N348     N        0.07343    0.12033    0.97364    1.000
    N349     N        0.08332    0.06034    0.95647    1.000
    Si350    Si       0.03283    0.12681    0.98911    1.000
    Si351    Si       0.05939    0.06303    0.99157    1.000
    N352     N        0.02177    0.08458    0.99319    1.000
    Si353    Si       0.12493    0.07689    0.94928    1.000
    Si354    Si       0.18777    0.03204    0.96707    1.000
    N355     N        0.13495    0.09803    0.98528    1.000
    N356     N        0.22660    0.02413    0.94886    1.000
    N357     N        0.15516    0.04570    0.94213    1.000
    N358     N        0.22461    0.09091    0.94203    1.000
    Si359    Si       0.23355    0.08493    0.98281    1.000
    N360     N        0.01522    0.15242    0.96136    1.000
    N361     N        0.07388    0.18940    0.96799    1.000
    Si362    Si       0.16077    0.25505    0.95220    1.000
    Si363    Si       0.21800    0.21602    0.94967    1.000
    Si364    Si       0.11475    0.20065    0.95765    1.000
    N365     N        0.11751    0.24537    0.95638    1.000
    N366     N        0.14339    0.17934    0.98235    1.000
    N367     N        0.20946    0.19253    0.98360    1.000
    Si368    Si       0.18162    0.16154    0.97301    1.000
    Si369    Si       0.08400    0.31492    0.01614    1.000
    Si370    Si       0.01982    0.36039    0.04082    1.000
    N371     N        0.05830    0.35010    0.02092    1.000
    N372     N        0.07424    0.27131    0.02479    1.000
    N373     N        0.99074    0.32947    0.04341    1.000
    N374     N        0.99545    0.26585    0.00400    1.000
    N375     N        0.12356    0.31952    0.02966    1.000
    Si376    Si       0.15208    0.28583    0.02990    1.000
    Si377    Si       0.21953    0.33166    0.01340    1.000
    N378     N        0.18395    0.31565    0.03043    1.000
    Si379    Si       0.15391    0.34379    0.04578    1.000
    N380     N        0.16073    0.38129    0.02733    1.000
    Si381    Si       0.21077    0.26858    0.99781    1.000
    N382     N        0.23739    0.35052    0.04829    1.000
    Si383    Si       0.07537    0.38966    0.01476    1.000
    N384     N        0.99809    0.39353    0.02360    1.000
    N385     N        0.05490    0.42600    0.00263    1.000
    N386     N        0.06914    0.49708    0.99878    1.000
    N387     N        0.09659    0.39608    0.05400    1.000
    N388     N        0.18481    0.47616    0.01228    1.000
    N389     N        0.22455    0.41761    0.02444    1.000
    N390     N        0.13629    0.50314    0.05179    1.000
    Si391    Si       0.14361    0.48688    0.01276    1.000
    N392     N        0.12134    0.44939    0.01550    1.000
    Si393    Si       0.13329    0.41325    0.03719    1.000
    Si394    Si       0.19978    0.44122    0.99194    1.000
    N395     N        0.03502    0.35859    0.08369    1.000
    Si396    Si       0.02514    0.32640    0.11245    1.000
    N397     N        0.98742    0.30655    0.10526    1.000
    N398     N        0.15143    0.35686    0.08647    1.000
    N399     N        0.17520    0.29426    0.09977    1.000
    Si400    Si       0.21093    0.27239    0.10334    1.000
    Si401    Si       0.07262    0.38479    0.08812    1.000
    Si402    Si       0.05342    0.45912    0.10072    1.000
    N403     N        0.03577    0.48298    0.07021    1.000
    N404     N        0.04465    0.41832    0.09843    1.000
    N405     N        0.09703    0.46317    0.10488    1.000
    Si406    Si       0.99413    0.48923    0.05742    1.000
    Si407    Si       0.01138    0.39209    0.11139    1.000
    N408     N        0.21041    0.40276    0.09680    1.000
    Si409    Si       0.13361    0.47127    0.08269    1.000
    N410     N        0.15159    0.43212    0.07275    1.000
    Si411    Si       0.16700    0.39819    0.09344    1.000
    Si412    Si       0.23396    0.39170    0.05881    1.000
    N413     N        0.21159    0.50715    0.07096    1.000
    N414     N        0.15971    0.49151    0.11171    1.000
    Si415    Si       0.08691    0.32769    0.14491    1.000
    N416     N        0.08960    0.36909    0.12743    1.000
    N417     N        0.01401    0.35094    0.14770    1.000
    Si418    Si       0.05914    0.26167    0.12224    1.000
    N419     N        0.06195    0.30513    0.11647    1.000
    Si420    Si       0.15622    0.32704    0.11844    1.000
    N421     N        0.12660    0.31150    0.14705    1.000
    N422     N        0.18734    0.34263    0.14328    1.000
    Si423    Si       0.22849    0.33109    0.14557    1.000
    N424     N        0.22976    0.28919    0.13864    1.000
    Si425    Si       0.12458    0.27255    0.17106    1.000
    N426     N        0.00299    0.41484    0.14949    1.000
    N427     N        0.04687    0.46907    0.14166    1.000
    Si428    Si       0.09043    0.46250    0.14790    1.000
    Si429    Si       0.01201    0.45461    0.16578    1.000
    N430     N        0.09180    0.42386    0.17017    1.000
    Si431    Si       0.11578    0.39434    0.15212    1.000
    N432     N        0.21478    0.39770    0.16501    1.000
    N433     N        0.21591    0.46231    0.14077    1.000
    N434     N        0.15410    0.40416    0.13552    1.000
    Si435    Si       0.22814    0.42173    0.13002    1.000
    N436     N        0.12276    0.48479    0.16699    1.000
    Si437    Si       0.20170    0.49295    0.11120    1.000
    Si438    Si       0.08013    0.30637    0.21948    1.000
    N439     N        0.01790    0.36667    0.20781    1.000
    Si440    Si       0.02372    0.32720    0.18532    1.000
    Si441    Si       0.01536    0.26524    0.22263    1.000
    N442     N        0.06592    0.32199    0.18173    1.000
    N443     N        0.99557    0.29612    0.19798    1.000
    Si444    Si       0.99330    0.38084    0.17356    1.000
    N445     N        0.11387    0.28141    0.21221    1.000
    N446     N        0.13683    0.37399    0.18567    1.000
    Si447    Si       0.12989    0.36365    0.22522    1.000
    N448     N        0.16273    0.33447    0.22988    1.000
    Si449    Si       0.17562    0.37988    0.16617    1.000
    N450     N        0.03400    0.44392    0.20351    1.000
    Si451    Si       0.07652    0.43246    0.20911    1.000
    N452     N        0.10753    0.45888    0.22886    1.000
    N453     N        0.17487    0.45280    0.20945    1.000
    Si454    Si       0.21348    0.46307    0.18484    1.000
    N455     N        0.22478    0.50438    0.19422    1.000
    N456     N        0.20309    0.39006    0.22660    1.000
    Si457    Si       0.13966    0.47801    0.20645    1.000
    Si458    Si       0.03119    0.31128    0.27691    1.000
    N459     N        0.02859    0.35574    0.27596    1.000
    N460     N        0.09969    0.33923    0.24119    1.000
    N461     N        0.04450    0.29371    0.23931    1.000
    Si462    Si       0.09769    0.33135    0.28364    1.000
    Si463    Si       0.21168    0.28635    0.26472    1.000
    N464     N        0.22986    0.32591    0.25294    1.000
    Si465    Si       0.14425    0.29830    0.24184    1.000
    N466     N        0.17858    0.27141    0.23984    1.000
    Si467    Si       0.19556    0.35320    0.24679    1.000
    N468     N        0.13569    0.30923    0.28588    1.000
    N469     N        0.18531    0.36286    0.28816    1.000
    Si470    Si       0.03129    0.38462    0.24485    1.000
    N471     N        0.06947    0.40492    0.24310    1.000
    Si472    Si       0.01825    0.45376    0.24274    1.000
    N473     N        0.00279    0.41477    0.26183    1.000
    Si474    Si       0.10175    0.40437    0.27221    1.000
    N475     N        0.05047    0.46951    0.26601    1.000
    Si476    Si       0.09573    0.47146    0.26854    1.000
    N477     N        0.99145    0.48809    0.23303    1.000
    Si478    Si       0.17565    0.42243    0.24149    1.000
    Si479    Si       0.22007    0.46687    0.28544    1.000
    N480     N        0.13898    0.39976    0.24875    1.000
    N481     N        0.19549    0.43402    0.27880    1.000
    N482     N        0.21147    0.50012    0.25957    1.000
    N483     N        0.09803    0.37082    0.29892    1.000
    N484     N        0.06695    0.30789    0.30210    1.000
    Si485    Si       0.08842    0.37384    0.34143    1.000
    Si486    Si       0.06852    0.29895    0.34471    1.000
    N487     N        0.99199    0.30699    0.29455    1.000
    Si488    Si       0.99119    0.35281    0.30002    1.000
    N489     N        0.19589    0.29334    0.30607    1.000
    Si490    Si       0.16720    0.32931    0.30716    1.000
    N491     N        0.16780    0.34341    0.34820    1.000
    Si492    Si       0.18781    0.25951    0.33443    1.000
    N493     N        0.10288    0.44114    0.29843    1.000
    N494     N        0.03250    0.49030    0.32926    1.000
    Si495    Si       0.00783    0.41492    0.34451    1.000
    Si496    Si       0.05122    0.50162    0.29307    1.000
    Si497    Si       0.98963    0.48990    0.33737    1.000
    N498     N        0.05013    0.39240    0.35225    1.000
    N499     N        0.21498    0.48082    0.32671    1.000
    Si500    Si       0.11425    0.44284    0.33988    1.000
    N501     N        0.18873    0.41140    0.34161    1.000
    Si502    Si       0.20320    0.39860    0.30387    1.000
    N503     N        0.15012    0.46951    0.34592    1.000
    N504     N        0.08613    0.33509    0.35938    1.000
    N505     N        0.03409    0.27628    0.35629    1.000
    N506     N        0.09235    0.26314    0.35139    1.000
    Si507    Si       0.99171    0.26321    0.36169    1.000
    N508     N        0.19048    0.28196    0.37103    1.000
    Si509    Si       0.20405    0.32152    0.36009    1.000
    N510     N        0.21653    0.33899    0.39751    1.000
    N511     N        0.15981    0.38109    0.40557    1.000
    Si512    Si       0.05182    0.40814    0.39292    1.000
    N513     N        0.08936    0.45904    0.37361    1.000
    Si514    Si       0.05000    0.47678    0.36680    1.000
    N515     N        0.02464    0.44295    0.37942    1.000
    Si516    Si       0.99394    0.45911    0.40585    1.000
    N517     N        0.11911    0.40079    0.35541    1.000
    Si518    Si       0.15968    0.38387    0.36256    1.000
    N519     N        0.13599    0.50606    0.40426    1.000
    Si520    Si       0.19247    0.45359    0.35271    1.000
    N521     N        0.20337    0.45913    0.39557    1.000
    N522     N        0.08352    0.29311    0.44701    1.000
    Si523    Si       0.04473    0.28365    0.46324    1.000
    Si524    Si       0.18348    0.34997    0.42361    1.000
    N525     N        0.15746    0.31289    0.42752    1.000
    Si526    Si       0.12631    0.29822    0.45231    1.000
    Si527    Si       0.17661    0.27801    0.41117    1.000
    N528     N        0.20298    0.37067    0.45967    1.000
    Si529    Si       0.23312    0.26869    0.46498    1.000
    Si530    Si       0.11074    0.46977    0.41159    1.000
    N531     N        0.02454    0.39644    0.42743    1.000
    Si532    Si       0.05963    0.39635    0.45410    1.000
    N533     N        0.08065    0.47926    0.44370    1.000
    N534     N        0.01299    0.47837    0.43749    1.000
    N535     N        0.08497    0.40476    0.41986    1.000
    Si536    Si       0.04730    0.50294    0.42761    1.000
    N537     N        0.14063    0.44381    0.42924    1.000
    N538     N        0.18334    0.49906    0.45066    1.000
    Si539    Si       0.12773    0.40211    0.42562    1.000
    Si540    Si       0.23243    0.40367    0.45483    1.000
    Si541    Si       0.18061    0.45723    0.43401    1.000
    Si542    Si       0.04073    0.34657    0.50005    1.000
    N543     N        0.01115    0.37678    0.50711    1.000
    N544     N        0.02052    0.31330    0.48014    1.000
    N545     N        0.07237    0.36386    0.47777    1.000
    Si546    Si       0.11250    0.36175    0.49451    1.000
    N547     N        0.05201    0.25509    0.49686    1.000
    N548     N        0.13152    0.32246    0.49140    1.000
    Si549    Si       0.14398    0.28826    0.51261    1.000
    Si550    Si       0.23115    0.34911    0.48949    1.000
    N551     N        0.14350    0.26256    0.47651    1.000
    N552     N        0.24020    0.31274    0.46850    1.000
    N553     N        0.03873    0.48699    0.49844    1.000
    N554     N        0.10413    0.46941    0.51132    1.000
    Si555    Si       0.07254    0.46501    0.48414    1.000
    N556     N        0.05229    0.42596    0.48316    1.000
    Si557    Si       0.01612    0.42097    0.50758    1.000
    Si558    Si       0.99958    0.47995    0.47854    1.000
    N559     N        0.16939    0.41262    0.51998    1.000
    N560     N        0.18459    0.48798    0.51622    1.000
    N561     N        0.19920    0.43309    0.46883    1.000
    Si562    Si       0.19460    0.44561    0.51325    1.000
    Si563    Si       0.21166    0.50188    0.48174    1.000
    Si564    Si       0.17407    0.39552    0.48046    1.000
    N565     N        0.13630    0.38583    0.46658    1.000
    Si566    Si       0.08755    0.35339    0.56171    1.000
    Si567    Si       0.07634    0.29214    0.55239    1.000
    N568     N        0.03829    0.27311    0.56235    1.000
    N569     N        0.10682    0.27083    0.53049    1.000
    N570     N        0.99598    0.35926    0.57368    1.000
    N571     N        0.06387    0.32849    0.53282    1.000
    N572     N        0.09740    0.31711    0.58257    1.000
    N573     N        0.11508    0.37385    0.53607    1.000
    N574     N        0.05919    0.38261    0.57942    1.000
    Si575    Si       0.20710    0.36042    0.56923    1.000
    Si576    Si       0.19261    0.28416    0.57564    1.000
    N577     N        0.17992    0.28095    0.53290    1.000
    N578     N        0.21623    0.35457    0.52850    1.000
    Si579    Si       0.03928    0.50545    0.53778    1.000
    N580     N        0.06809    0.49483    0.56702    1.000
    N581     N        0.01807    0.42603    0.55116    1.000
    Si582    Si       0.10559    0.47126    0.55331    1.000
    N583     N        0.99986    0.49989    0.55417    1.000
    Si584    Si       0.01746    0.39386    0.58141    1.000
    N585     N        0.11161    0.43075    0.56879    1.000
    Si586    Si       0.23702    0.43455    0.58127    1.000
    N587     N        0.22910    0.43975    0.53884    1.000
    N588     N        0.16909    0.38635    0.58048    1.000
    N589     N        0.13906    0.49567    0.56763    1.000
    Si590    Si       0.14047    0.40342    0.55147    1.000
    Si591    Si       0.02636    0.27503    0.60419    1.000
    N592     N        0.04812    0.29480    0.63516    1.000
    N593     N        0.11192    0.37954    0.61772    1.000
    Si594    Si       0.11801    0.29350    0.61207    1.000
    N595     N        0.15483    0.27596    0.59820    1.000
    N596     N        0.21003    0.32094    0.59043    1.000
    N597     N        0.01298    0.40860    0.62294    1.000
    Si598    Si       0.08615    0.41086    0.59890    1.000
    N599     N        0.02298    0.47782    0.61670    1.000
    N600     N        0.09832    0.49517    0.62609    1.000
    N601     N        0.07466    0.43501    0.63260    1.000
    Si602    Si       0.05863    0.50834    0.61050    1.000
    Si603    Si       0.03139    0.44251    0.64079    1.000
    Si604    Si       0.98838    0.49011    0.59480    1.000
    Si605    Si       0.10995    0.45741    0.64404    1.000
    Si606    Si       0.21218    0.50729    0.61024    1.000
    Si607    Si       0.18310    0.45970    0.63573    1.000
    Si608    Si       0.15355    0.39575    0.61958    1.000
    N609     N        0.21247    0.46245    0.60229    1.000
    N610     N        0.16712    0.50044    0.63291    1.000
    N611     N        0.23558    0.38983    0.59038    1.000
    N612     N        0.14660    0.43709    0.63158    1.000
    Si613    Si       0.07600    0.29184    0.66670    1.000
    N614     N        0.01726    0.37317    0.68597    1.000
    N615     N        0.09729    0.37744    0.68798    1.000
    N616     N        0.99039    0.30737    0.68745    1.000
    N617     N        0.06166    0.31271    0.70289    1.000
    Si618    Si       0.02136    0.33215    0.70228    1.000
    Si619    Si       0.98930    0.26514    0.69802    1.000
    N620     N        0.11151    0.31439    0.64867    1.000
    Si621    Si       0.11657    0.35670    0.65299    1.000
    Si622    Si       0.18437    0.36335    0.69122    1.000
    N623     N        0.18151    0.27645    0.67817    1.000
    Si624    Si       0.22167    0.29530    0.67578    1.000
    N625     N        0.15935    0.37418    0.65774    1.000
    N626     N        0.21738    0.33850    0.67861    1.000
    Si627    Si       0.99222    0.38682    0.65474    1.000
    N628     N        0.11314    0.45508    0.68635    1.000
    N629     N        0.01746    0.44489    0.68224    1.000
    N630     N        0.20634    0.44019    0.66710    1.000
    N631     N        0.16123    0.50789    0.70415    1.000
    N632     N        0.02225    0.33248    0.74634    1.000
    Si633    Si       0.06151    0.31550    0.74655    1.000
    N634     N        0.09183    0.34859    0.75552    1.000
    Si635    Si       0.11997    0.36212    0.72290    1.000
    N636     N        0.15611    0.33663    0.71366    1.000
    Si637    Si       0.16266    0.29408    0.71358    1.000
    N638     N        0.19272    0.28752    0.74329    1.000
    N639     N        0.12601    0.27378    0.72587    1.000
    Si640    Si       0.22168    0.37676    0.75200    1.000
    Si641    Si       0.23373    0.27422    0.74645    1.000
    Si642    Si       0.02535    0.40916    0.70981    1.000
    N643     N        0.06284    0.42406    0.72684    1.000
    N644     N        0.00002    0.40125    0.74623    1.000
    N645     N        0.02203    0.50213    0.72315    1.000
    Si646    Si       0.09951    0.41798    0.70332    1.000
    N647     N        0.11387    0.46756    0.75357    1.000
    Si648    Si       0.99565    0.47497    0.70436    1.000
    Si649    Si       0.12174    0.48851    0.71400    1.000
    Si650    Si       0.22025    0.43454    0.70668    1.000
    N651     N        0.20591    0.39271    0.71532    1.000
    N652     N        0.12784    0.40456    0.73312    1.000
    Si653    Si       0.18997    0.50262    0.73620    1.000
    N654     N        0.19883    0.46127    0.73415    1.000
    N655     N        0.04317    0.36656    0.79942    1.000
    Si656    Si       0.08730    0.37218    0.79130    1.000
    Si657    Si       0.01113    0.36571    0.77034    1.000
    N658     N        0.07022    0.27616    0.76534    1.000
    N659     N        0.98910    0.27680    0.80243    1.000
    Si660    Si       0.11267    0.27503    0.76612    1.000
    Si661    Si       0.18188    0.30800    0.78079    1.000
    N662     N        0.13852    0.30207    0.78836    1.000
    N663     N        0.19796    0.34759    0.77496    1.000
    N664     N        0.20570    0.29791    0.81738    1.000
    Si665    Si       0.18739    0.37968    0.80345    1.000
    N666     N        0.14558    0.38546    0.79713    1.000
    N667     N        0.04396    0.47301    0.78287    1.000
    N668     N        0.09100    0.41800    0.79142    1.000
    Si669    Si       0.02219    0.50875    0.76440    1.000
    Si670    Si       0.07382    0.44769    0.76287    1.000
    N671     N        0.22603    0.47429    0.79493    1.000
    Si672    Si       0.13152    0.42059    0.77270    1.000
    Si673    Si       0.13651    0.48582    0.78646    1.000
    Si674    Si       0.20063    0.44720    0.77560    1.000
    N675     N        0.21411    0.40714    0.78278    1.000
    N676     N        0.15971    0.44726    0.79150    1.000
    N677     N        0.17474    0.50844    0.77755    1.000
    Si678    Si       0.03045    0.36513    0.84163    1.000
    N679     N        0.00835    0.32958    0.84581    1.000
    N680     N        0.08095    0.28815    0.83382    1.000
    N681     N        0.05748    0.37866    0.87193    1.000
    N682     N        0.10382    0.34851    0.82413    1.000
    Si683    Si       0.07290    0.27377    0.87526    1.000
    N684     N        0.14572    0.29275    0.85611    1.000
    Si685    Si       0.18462    0.27686    0.84727    1.000
    N686     N        0.18147    0.37170    0.84561    1.000
    Si687    Si       0.13611    0.37168    0.84167    1.000
    Si688    Si       0.11813    0.30751    0.82634    1.000
    N689     N        0.00252    0.39922    0.84236    1.000
    N690     N        0.00226    0.47011    0.84482    1.000
    Si691    Si       0.09520    0.43572    0.83237    1.000
    N692     N        0.05819    0.44611    0.85078    1.000
    Si693    Si       0.01804    0.43500    0.86389    1.000
    Si694    Si       0.04025    0.47715    0.82586    1.000
    N695     N        0.11096    0.47629    0.82454    1.000
    N696     N        0.18126    0.49041    0.85331    1.000
    Si697    Si       0.14668    0.50546    0.87461    1.000
    N698     N        0.11706    0.40819    0.85649    1.000
    Si699    Si       0.20711    0.46386    0.87655    1.000
    Si700    Si       0.20394    0.39053    0.87649    1.000
    N701     N        0.01303    0.34191    0.90930    1.000
    N702     N        0.09807    0.29006    0.90668    1.000
    N703     N        0.03438    0.27340    0.89225    1.000
    N704     N        0.07602    0.37060    0.92921    1.000
    Si705    Si       0.03625    0.37919    0.91197    1.000
    Si706    Si       0.00627    0.30944    0.88434    1.000
    Si707    Si       0.09683    0.38426    0.89108    1.000
    N708     N        0.12860    0.35027    0.88693    1.000
    N709     N        0.16659    0.29043    0.92507    1.000
    Si710    Si       0.13638    0.30485    0.89585    1.000
    Si711    Si       0.21025    0.28631    0.91914    1.000
    N712     N        0.19499    0.36905    0.91437    1.000
    Si713    Si       0.15305    0.37029    0.91743    1.000
    N714     N        0.21344    0.27549    0.87855    1.000
    N715     N        0.24055    0.31715    0.92926    1.000
    N716     N        0.01537    0.42174    0.90359    1.000
    N717     N        0.22121    0.48482    0.91028    1.000
    N718     N        0.18404    0.42796    0.88157    1.000
    N719     N        0.12865    0.40742    0.91892    1.000
    Si720    Si       0.14176    0.43199    0.88672    1.000
    N721     N        0.13005    0.47239    0.89653    1.000
    N722     N        0.08912    0.31552    0.97171    1.000
    Si723    Si       0.08871    0.27709    0.94977    1.000
    Si724    Si       0.10298    0.35427    0.96005    1.000
    N725     N        0.05105    0.25860    0.95998    1.000
    N726     N        0.14508    0.35117    0.95575    1.000
    N727     N        0.20792    0.35592    0.98088    1.000
    Si728    Si       0.17004    0.37539    0.98446    1.000
    Si729    Si       0.22420    0.35477    0.94167    1.000
    N730     N        0.22078    0.25962    0.95318    1.000
    N731     N        0.16773    0.26406    0.99335    1.000
    N732     N        0.01465    0.38480    0.95335    1.000
    Si733    Si       0.01727    0.41156    0.98783    1.000
    N734     N        0.10735    0.38965    0.98539    1.000
    N735     N        0.10436    0.45704    0.95613    1.000
    N736     N        0.99287    0.44148    0.96768    1.000
    Si737    Si       0.08445    0.45660    0.99518    1.000
    N738     N        0.16835    0.41798    0.97287    1.000
    Si739    Si       0.12737    0.42005    0.96079    1.000
    N740     N        0.23559    0.45342    0.97128    1.000
    N741     N        0.14227    0.51073    0.97515    1.000
    Si742    Si       0.12384    0.49242    0.93677    1.000
    Si743    Si       0.08902    0.56782    0.02358    1.000
    N744     N        0.07873    0.60965    0.03391    1.000
    N745     N        0.00829    0.60130    0.03756    1.000
    N746     N        0.05801    0.54878    0.04445    1.000
    Si747    Si       0.04242    0.62898    0.02855    1.000
    N748     N        0.00420    0.50982    0.02268    1.000
    Si749    Si       0.04660    0.50847    0.03482    1.000
    N750     N        0.18262    0.54247    0.02173    1.000
    N751     N        0.12787    0.57203    0.04183    1.000
    Si752    Si       0.11836    0.61455    0.04875    1.000
    Si753    Si       0.21003    0.50806    0.02664    1.000
    Si754    Si       0.15561    0.54078    0.05475    1.000
    N755     N        0.03756    0.71667    0.02318    1.000
    N756     N        0.09845    0.68922    0.00208    1.000
    N757     N        0.20668    0.67249    0.02193    1.000
    Si758    Si       0.18425    0.63638    0.02095    1.000
    N759     N        0.23618    0.72071    0.04153    1.000
    N760     N        0.14026    0.63685    0.02121    1.000
    N761     N        0.13284    0.75469    0.02342    1.000
    Si762    Si       0.22454    0.70702    0.00265    1.000
    N763     N        0.05988    0.59559    0.09444    1.000
    Si764    Si       0.03183    0.57403    0.06625    1.000
    N765     N        0.00061    0.56552    0.09670    1.000
    N766     N        0.17418    0.55965    0.09043    1.000
    Si767    Si       0.17057    0.60336    0.09274    1.000
    Si768    Si       0.21718    0.54602    0.08850    1.000
    N769     N        0.13167    0.62373    0.08966    1.000
    N770     N        0.19295    0.61842    0.05970    1.000
    Si771    Si       0.23625    0.61962    0.06613    1.000
    Si772    Si       0.02365    0.69721    0.05902    1.000
    Si773    Si       0.04986    0.64140    0.09754    1.000
    N774     N        0.04455    0.72226    0.08842    1.000
    N775     N        0.04172    0.65870    0.05953    1.000
    Si776    Si       0.08142    0.70996    0.11156    1.000
    N777     N        0.08052    0.66556    0.11457    1.000
    Si778    Si       0.21512    0.68952    0.06282    1.000
    N779     N        0.18241    0.70072    0.08891    1.000
    N780     N        0.12110    0.72489    0.09799    1.000
    N781     N        0.04528    0.56703    0.15109    1.000
    Si782    Si       0.08314    0.57424    0.12662    1.000
    Si783    Si       0.01380    0.58977    0.13104    1.000
    N784     N        0.10375    0.60775    0.14864    1.000
    N785     N        0.10384    0.54029    0.11813    1.000
    N786     N        0.18699    0.60592    0.13420    1.000
    N787     N        0.21736    0.53083    0.12781    1.000
    Si788    Si       0.18611    0.56163    0.14244    1.000
    N789     N        0.15419    0.54381    0.16093    1.000
    Si790    Si       0.13305    0.51544    0.13612    1.000
    Si791    Si       0.21502    0.61392    0.16907    1.000
    Si792    Si       0.23774    0.53460    0.16515    1.000
    Si793    Si       0.99122    0.64286    0.15888    1.000
    N794     N        0.01744    0.63362    0.12499    1.000
    N795     N        0.06198    0.72934    0.14712    1.000
    Si796    Si       0.03108    0.74692    0.12358    1.000
    N797     N        0.98961    0.74096    0.13176    1.000
    Si798    Si       0.15533    0.71223    0.12078    1.000
    N799     N        0.22191    0.65704    0.15419    1.000
    N800     N        0.14202    0.67574    0.14422    1.000
    Si801    Si       0.11657    0.64422    0.12582    1.000
    N802     N        0.17381    0.73928    0.14911    1.000
    N803     N        0.01458    0.55116    0.21066    1.000
    Si804    Si       0.05318    0.56134    0.19430    1.000
    N805     N        0.08854    0.53840    0.19696    1.000
    N806     N        0.06475    0.59887    0.21009    1.000
    Si807    Si       0.10367    0.60963    0.19297    1.000
    N808     N        0.13495    0.58617    0.21216    1.000
    Si809    Si       0.13169    0.54513    0.19769    1.000
    N810     N        0.21310    0.56910    0.17645    1.000
    N811     N        0.14838    0.51645    0.22454    1.000
    Si812    Si       0.17281    0.59955    0.22923    1.000
    N813     N        0.00173    0.67585    0.18708    1.000
    Si814    Si       0.07914    0.73983    0.18483    1.000
    N815     N        0.05433    0.72283    0.21578    1.000
    Si816    Si       0.03067    0.68731    0.21692    1.000
    N817     N        0.11035    0.65213    0.20326    1.000
    N818     N        0.11957    0.72426    0.18740    1.000
    N819     N        0.19163    0.63117    0.20457    1.000
    Si820    Si       0.13271    0.68244    0.18541    1.000
    Si821    Si       0.16267    0.73405    0.19043    1.000
    N822     N        0.17339    0.69389    0.20308    1.000
    Si823    Si       0.20810    0.67048    0.19167    1.000
    Si824    Si       0.00032    0.52816    0.24423    1.000
    N825     N        0.03167    0.53513    0.27489    1.000
    Si826    Si       0.03983    0.61689    0.24359    1.000
    N827     N        0.03880    0.60518    0.28632    1.000
    N828     N        0.09449    0.51089    0.28897    1.000
    N829     N        0.99765    0.61730    0.23029    1.000
    N830     N        0.19052    0.56804    0.25197    1.000
    Si831    Si       0.17833    0.52707    0.25499    1.000
    Si832    Si       0.23026    0.57439    0.26863    1.000
    N833     N        0.23159    0.61653    0.27908    1.000
    N834     N        0.16137    0.62906    0.25974    1.000
    Si835    Si       0.09610    0.65925    0.24526    1.000
    N836     N        0.05399    0.65938    0.23837    1.000
    N837     N        0.99778    0.75120    0.28401    1.000
    N838     N        0.09876    0.64091    0.28397    1.000
    N839     N        0.99693    0.69333    0.24599    1.000
    Si840    Si       0.19474    0.63752    0.29054    1.000
    Si841    Si       0.13149    0.71472    0.28410    1.000
    Si842    Si       0.20828    0.71925    0.28101    1.000
    N843     N        0.12931    0.68810    0.25129    1.000
    N844     N        0.19751    0.67817    0.27090    1.000
    Si845    Si       0.16719    0.66847    0.24248    1.000
    N846     N        0.16845    0.73845    0.28031    1.000
    N847     N        0.23301    0.73673    0.24937    1.000
    Si848    Si       0.07836    0.60073    0.30832    1.000
    N849     N        0.06126    0.56732    0.33174    1.000
    Si850    Si       0.02706    0.56491    0.30361    1.000
    Si851    Si       0.99944    0.62012    0.30305    1.000
    N852     N        0.09195    0.62609    0.34131    1.000
    Si853    Si       0.13630    0.61857    0.29317    1.000
    N854     N        0.11903    0.57917    0.29465    1.000
    Si855    Si       0.12465    0.53630    0.30543    1.000
    Si856    Si       0.20187    0.52370    0.32230    1.000
    N857     N        0.16380    0.52263    0.29687    1.000
    N858     N        0.23230    0.54732    0.30504    1.000
    N859     N        0.16766    0.63029    0.32255    1.000
    N860     N        0.11627    0.53651    0.34811    1.000
    N861     N        0.99249    0.71020    0.34111    1.000
    N862     N        0.05987    0.69045    0.32325    1.000
    Si863    Si       0.07558    0.73118    0.32535    1.000
    N864     N        0.00533    0.64281    0.33960    1.000
    Si865    Si       0.09630    0.66528    0.32092    1.000
    Si866    Si       0.02574    0.68071    0.34409    1.000
    N867     N        0.09776    0.73916    0.29069    1.000
    N868     N        0.12934    0.69252    0.32067    1.000
    N869     N        0.23440    0.72118    0.31527    1.000
    Si870    Si       0.07724    0.54872    0.36708    1.000
    Si871    Si       0.09819    0.61477    0.38266    1.000
    N872     N        0.08521    0.57749    0.39941    1.000
    N873     N        0.05609    0.51529    0.38592    1.000
    N874     N        0.20962    0.59961    0.37027    1.000
    Si875    Si       0.20700    0.56058    0.38812    1.000
    N876     N        0.18608    0.53273    0.36223    1.000
    N877     N        0.14179    0.62189    0.38991    1.000
    Si878    Si       0.17695    0.62962    0.36624    1.000
    Si879    Si       0.14738    0.50932    0.36287    1.000
    N880     N        0.09977    0.73583    0.36228    1.000
    N881     N        0.02936    0.68663    0.38704    1.000
    Si882    Si       0.09924    0.74492    0.40496    1.000
    N883     N        0.99953    0.74523    0.40817    1.000
    N884     N        0.08642    0.64898    0.40583    1.000
    N885     N        0.20249    0.66219    0.38252    1.000
    Si886    Si       0.18796    0.70370    0.38942    1.000
    N887     N        0.17841    0.73286    0.35608    1.000
    N888     N        0.14479    0.69222    0.38958    1.000
    N889     N        0.23442    0.71939    0.37921    1.000
    Si890    Si       0.13743    0.71715    0.35539    1.000
    Si891    Si       0.21860    0.74707    0.34828    1.000
    N892     N        0.04834    0.54131    0.44480    1.000
    Si893    Si       0.08548    0.56371    0.44174    1.000
    Si894    Si       0.00756    0.62644    0.44961    1.000
    Si895    Si       0.00662    0.55455    0.45813    1.000
    N896     N        0.00882    0.61948    0.40782    1.000
    Si897    Si       0.22971    0.56873    0.44733    1.000
    N898     N        0.12579    0.54827    0.45252    1.000
    Si899    Si       0.15961    0.53048    0.43409    1.000
    N900     N        0.18803    0.56208    0.42601    1.000
    N901     N        0.08447    0.71118    0.42911    1.000
    N902     N        0.03346    0.66205    0.45225    1.000
    Si903    Si       0.05675    0.67789    0.41925    1.000
    Si904    Si       0.10688    0.70225    0.46640    1.000
    Si905    Si       0.12895    0.65930    0.41331    1.000
    Si906    Si       0.21093    0.69581    0.46595    1.000
    N907     N        0.18918    0.71692    0.43145    1.000
    Si908    Si       0.16672    0.74581    0.45370    1.000
    N909     N        0.13049    0.66828    0.45509    1.000
    Si910    Si       0.04695    0.58504    0.50791    1.000
    N911     N        0.08322    0.58055    0.48472    1.000
    N912     N        0.01703    0.59382    0.47575    1.000
    N913     N        0.98594    0.52169    0.47931    1.000
    Si914    Si       0.12497    0.56834    0.49093    1.000
    N915     N        0.14500    0.60650    0.48947    1.000
    N916     N        0.22879    0.54226    0.48287    1.000
    Si917    Si       0.22502    0.63361    0.49797    1.000
    N918     N        0.15088    0.55387    0.52588    1.000
    N919     N        0.01505    0.72426    0.48800    1.000
    Si920    Si       0.03655    0.68575    0.48795    1.000
    N921     N        0.07708    0.69741    0.49772    1.000
    Si922    Si       0.15440    0.64874    0.48756    1.000
    N923     N        0.19488    0.65926    0.48211    1.000
    N924     N        0.14279    0.67391    0.52193    1.000
    N925     N        0.20073    0.72876    0.49183    1.000
    N926     N        0.13846    0.72915    0.48091    1.000
    Si927    Si       0.14990    0.71939    0.52106    1.000
    N928     N        0.05206    0.60894    0.54552    1.000
    Si929    Si       0.03868    0.57375    0.57002    1.000
    N930     N        0.03716    0.54873    0.53144    1.000
    N931     N        0.99950    0.59138    0.58385    1.000
    N932     N        0.14206    0.61419    0.56095    1.000
    N933     N        0.20121    0.52557    0.57279    1.000
    Si934    Si       0.16942    0.51841    0.54405    1.000
    Si935    Si       0.20963    0.62450    0.57274    1.000
    N936     N        0.20298    0.61425    0.53018    1.000
    Si937    Si       0.16358    0.59449    0.52808    1.000
    Si938    Si       0.01727    0.73957    0.53239    1.000
    Si939    Si       0.04707    0.65094    0.55816    1.000
    Si940    Si       0.08165    0.70546    0.53863    1.000
    N941     N        0.05267    0.73432    0.55716    1.000
    N942     N        0.08728    0.66567    0.55858    1.000
    N943     N        0.02150    0.66717    0.52666    1.000
    Si944    Si       0.12886    0.65508    0.55902    1.000
    N945     N        0.20363    0.66747    0.57929    1.000
    Si946    Si       0.20712    0.74862    0.52899    1.000
    N947     N        0.11369    0.73428    0.54422    1.000
    N948     N        0.17784    0.72508    0.55212    1.000
    N949     N        0.05867    0.55405    0.60140    1.000
    Si950    Si       0.99115    0.63320    0.59745    1.000
    Si951    Si       0.06737    0.56519    0.64390    1.000
    N952     N        0.05143    0.60583    0.64332    1.000
    Si953    Si       0.13272    0.51226    0.60708    1.000
    N954     N        0.13769    0.61623    0.63343    1.000
    Si955    Si       0.14970    0.59389    0.59947    1.000
    N956     N        0.19373    0.59473    0.60015    1.000
    N957     N        0.13200    0.55560    0.60361    1.000
    N958     N        0.04795    0.72783    0.63196    1.000
    Si959    Si       0.04726    0.75139    0.59674    1.000
    N960     N        0.02996    0.65236    0.59696    1.000
    Si961    Si       0.04946    0.64863    0.63415    1.000
    N962     N        0.08773    0.67055    0.63857    1.000
    N963     N        0.17679    0.72797    0.62199    1.000
    Si964    Si       0.12889    0.65887    0.63335    1.000
    N965     N        0.14169    0.67635    0.59622    1.000
    Si966    Si       0.17616    0.70118    0.58778    1.000
    N967     N        0.10021    0.57185    0.67120    1.000
    Si968    Si       0.99949    0.53009    0.65292    1.000
    N969     N        0.04428    0.52851    0.65827    1.000
    N970     N        0.00103    0.62165    0.69886    1.000
    Si971    Si       0.05085    0.52402    0.70143    1.000
    N972     N        0.22431    0.51394    0.65209    1.000
    N973     N        0.17732    0.56448    0.66032    1.000
    Si974    Si       0.14024    0.58652    0.66712    1.000
    Si975    Si       0.18179    0.52261    0.66766    1.000
    Si976    Si       0.20698    0.59033    0.64308    1.000
    N977     N        0.20729    0.63232    0.65777    1.000
    N978     N        0.15232    0.61208    0.70143    1.000
    Si979    Si       0.09861    0.75083    0.69820    1.000
    N980     N        0.02908    0.67194    0.66519    1.000
    Si981    Si       0.01144    0.70778    0.65015    1.000
    N982     N        0.00582    0.73491    0.68523    1.000
    Si983    Si       0.08140    0.71071    0.65448    1.000
    N984     N        0.07613    0.71177    0.69794    1.000
    N985     N        0.11724    0.73548    0.66031    1.000
    N986     N        0.18392    0.73200    0.69219    1.000
    Si987    Si       0.17633    0.64539    0.68636    1.000
    Si988    Si       0.23569    0.65884    0.67313    1.000
    N989     N        0.15250    0.67557    0.66529    1.000
    Si990    Si       0.15762    0.71806    0.66114    1.000
    N991     N        0.10549    0.57934    0.73853    1.000
    N992     N        0.08982    0.51832    0.71573    1.000
    N993     N        0.99585    0.57107    0.74892    1.000
    Si994    Si       0.09331    0.54121    0.75397    1.000
    Si995    Si       0.00138    0.57895    0.70705    1.000
    N996     N        0.04436    0.56753    0.70722    1.000
    Si997    Si       0.07949    0.59104    0.70500    1.000
    N998     N        0.07081    0.63210    0.71288    1.000
    N999     N        0.22426    0.53073    0.73488    1.000
    Si1000   Si       0.14430    0.59963    0.74116    1.000
    N1001    N        0.22926    0.60174    0.72933    1.000
    Si1002   Si       0.21610    0.56892    0.75483    1.000
    N1003    N        0.17455    0.57625    0.76222    1.000
    Si1004   Si       0.08653    0.63648    0.75556    1.000
    N1005    N        0.01519    0.67103    0.73777    1.000
    Si1006   Si       0.04062    0.73594    0.70989    1.000
    N1007    N        0.04227    0.73536    0.75364    1.000
    Si1008   Si       0.03409    0.65135    0.70479    1.000
    N1009    N        0.11100    0.75661    0.73913    1.000
    Si1010   Si       0.19446    0.70573    0.72464    1.000
    Si1011   Si       0.22491    0.64123    0.74518    1.000
    N1012    N        0.16455    0.70808    0.75403    1.000
    N1013    N        0.23337    0.72438    0.73291    1.000
    N1014    N        0.20770    0.66366    0.71235    1.000
    N1015    N        0.05971    0.61219    0.77810    1.000
    N1016    N        0.05196    0.54143    0.76755    1.000
    Si1017   Si       0.03287    0.57906    0.77075    1.000
    N1018    N        0.11705    0.52831    0.78833    1.000
    Si1019   Si       0.15906    0.54584    0.78868    1.000
    Si1020   Si       0.20371    0.50916    0.81685    1.000
    Si1021   Si       0.09498    0.69069    0.80558    1.000
    N1022    N        0.00683    0.69926    0.80298    1.000
    Si1023   Si       0.03279    0.69459    0.76949    1.000
    N1024    N        0.07143    0.67528    0.77353    1.000
    N1025    N        0.10332    0.73219    0.79700    1.000
    Si1026   Si       0.07612    0.75659    0.76827    1.000
    Si1027   Si       0.15960    0.66810    0.77287    1.000
    N1028    N        0.20059    0.65499    0.78090    1.000
    Si1029   Si       0.13754    0.73908    0.77128    1.000
    N1030    N        0.23392    0.75755    0.79773    1.000
    N1031    N        0.13819    0.67755    0.80941    1.000
    N1032    N        0.13053    0.63888    0.75817    1.000
    Si1033   Si       0.02813    0.54893    0.84959    1.000
    N1034    N        0.08600    0.60455    0.84902    1.000
    N1035    N        0.05380    0.51602    0.83538    1.000
    Si1036   Si       0.09604    0.51771    0.82647    1.000
    Si1037   Si       0.05418    0.61329    0.82086    1.000
    N1038    N        0.11238    0.53211    0.86370    1.000
    N1039    N        0.02221    0.58013    0.81911    1.000
    N1040    N        0.20992    0.61310    0.84802    1.000
    Si1041   Si       0.19518    0.57339    0.85941    1.000
    N1042    N        0.18402    0.55133    0.82400    1.000
    Si1043   Si       0.17741    0.63280    0.87711    1.000
    Si1044   Si       0.05530    0.66988    0.86945    1.000
    N1045    N        0.08736    0.68056    0.84592    1.000
    N1046    N        0.03128    0.64562    0.84084    1.000
    Si1047   Si       0.99480    0.66497    0.82783    1.000
    Si1048   Si       0.01500    0.74552    0.87960    1.000
    N1049    N        0.19923    0.74599    0.86021    1.000
    Si1050   Si       0.13384    0.68019    0.85166    1.000
    Si1051   Si       0.21294    0.65095    0.82243    1.000
    Si1052   Si       0.12579    0.75202    0.82971    1.000
    N1053    N        0.19211    0.67219    0.85582    1.000
    N1054    N        0.13704    0.72268    0.85813    1.000
    N1055    N        0.10327    0.58173    0.91103    1.000
    N1056    N        0.04154    0.55398    0.89006    1.000
    Si1057   Si       0.01963    0.56616    0.92426    1.000
    Si1058   Si       0.08318    0.54536    0.89328    1.000
    Si1059   Si       0.10183    0.61912    0.88808    1.000
    N1060    N        0.08737    0.51727    0.92884    1.000
    N1061    N        0.16008    0.52654    0.91029    1.000
    Si1062   Si       0.20406    0.52542    0.91579    1.000
    Si1063   Si       0.14582    0.56931    0.91550    1.000
    N1064    N        0.22224    0.55213    0.88641    1.000
    N1065    N        0.16494    0.59071    0.88362    1.000
    Si1066   Si       0.01967    0.70700    0.92535    1.000
    N1067    N        0.07030    0.64522    0.90247    1.000
    N1068    N        0.01914    0.74993    0.92253    1.000
    N1069    N        0.03046    0.70412    0.88106    1.000
    Si1070   Si       0.21408    0.70600    0.87686    1.000
    N1071    N        0.13507    0.64718    0.87864    1.000
    N1072    N        0.19938    0.63393    0.91632    1.000
    Si1073   Si       0.16454    0.74053    0.88479    1.000
    N1074    N        0.17760    0.70986    0.91147    1.000
    N1075    N        0.02429    0.53389    0.95443    1.000
    Si1076   Si       0.06546    0.52532    0.96449    1.000
    N1077    N        0.08334    0.56220    0.98188    1.000
    Si1078   Si       0.08465    0.59243    0.95026    1.000
    N1079    N        0.04156    0.60086    0.93956    1.000
    Si1080   Si       0.99183    0.52618    0.98652    1.000
    N1081    N        0.21036    0.53446    0.95592    1.000
    N1082    N        0.15955    0.58364    0.95304    1.000
    Si1083   Si       0.17339    0.54628    0.97739    1.000
    Si1084   Si       0.17721    0.62360    0.95313    1.000
    N1085    N        0.20410    0.61587    0.98710    1.000
    N1086    N        0.09643    0.63079    0.96238    1.000
    N1087    N        0.05192    0.69105    0.94933    1.000
    Si1088   Si       0.05746    0.64595    0.94747    1.000
    N1089    N        0.04083    0.64717    0.99015    1.000
    Si1090   Si       0.05545    0.68917    0.99339    1.000
    Si1091   Si       0.10720    0.73001    0.99896    1.000
    Si1092   Si       0.16542    0.70428    0.95337    1.000
    Si1093   Si       0.12180    0.65525    0.98788    1.000
    N1094    N        0.13245    0.73170    0.96227    1.000
    N1095    N        0.15841    0.66201    0.96408    1.000
    N1096    N        0.19006    0.72442    0.98443    1.000
    N1097    N        0.03184    0.79581    0.04801    1.000
    N1098    N        0.99895    0.86578    0.04502    1.000
    Si1099   Si       0.99913    0.82265    0.04792    1.000
    Si1100   Si       0.03971    0.76014    0.01954    1.000
    Si1101   Si       0.11785    0.79803    0.00961    1.000
    N1102    N        0.19961    0.78338    0.02555    1.000
    Si1103   Si       0.18139    0.82363    0.02969    1.000
    N1104    N        0.13943    0.82449    0.03696    1.000
    Si1105   Si       0.17001    0.75873    0.99917    1.000
    N1106    N        0.06104    0.88499    0.02101    1.000
    Si1107   Si       0.01140    0.00574    0.01520    1.000
    Si1108   Si       0.01639    0.88672    0.01172    1.000
    N1109    N        0.00393    0.92911    0.01539    1.000
    Si1110   Si       0.07337    0.99170    0.02569    1.000
    N1111    N        0.03473    0.98164    0.04755    1.000
    N1112    N        0.08358    0.95715    0.00172    1.000
    Si1113   Si       0.01652    0.94293    0.05402    1.000
    Si1114   Si       0.11059    0.92918    0.02042    1.000
    N1115    N        0.14788    0.95226    0.01815    1.000
    Si1116   Si       0.18669    0.95628    0.99830    1.000
    Si1117   Si       0.15177    0.99209    0.03963    1.000
    N1118    N        0.21228    0.93984    0.03052    1.000
    N1119    N        0.11923    0.89591    0.99432    1.000
    N1120    N        0.18383    0.00288    0.00188    1.000
    Si1121   Si       0.05952    0.80359    0.08042    1.000
    N1122    N        0.07648    0.84476    0.07568    1.000
    N1123    N        0.09971    0.78584    0.07587    1.000
    Si1124   Si       0.99922    0.87801    0.08696    1.000
    N1125    N        0.03591    0.78878    0.11525    1.000
    Si1126   Si       0.11608    0.82626    0.07339    1.000
    N1127    N        0.14119    0.84328    0.10291    1.000
    N1128    N        0.16512    0.77210    0.08798    1.000
    Si1129   Si       0.17778    0.86342    0.09678    1.000
    N1130    N        0.19955    0.83723    0.06756    1.000
    Si1131   Si       0.20259    0.79432    0.08269    1.000
    Si1132   Si       0.13012    0.75655    0.06911    1.000
    Si1133   Si       0.07076    0.88829    0.06421    1.000
    Si1134   Si       0.03449    0.99917    0.08904    1.000
    N1135    N        0.03343    0.91033    0.07819    1.000
    N1136    N        0.10590    0.91680    0.06246    1.000
    N1137    N        0.05589    0.96768    0.11250    1.000
    N1138    N        0.16504    0.96871    0.07813    1.000
    Si1139   Si       0.19028    0.99831    0.09435    1.000
    N1140    N        0.17143    0.90261    0.08084    1.000
    N1141    N        0.22260    0.93783    0.10965    1.000
    N1142    N        0.23446    0.00276    0.09443    1.000
    Si1143   Si       0.21009    0.92251    0.07092    1.000
    Si1144   Si       0.14045    0.93287    0.08715    1.000
    N1145    N        0.08560    0.83260    0.14998    1.000
    Si1146   Si       0.05480    0.86226    0.14113    1.000
    Si1147   Si       0.00342    0.81696    0.12329    1.000
    N1148    N        0.02163    0.85584    0.11582    1.000
    N1149    N        0.99181    0.82048    0.16420    1.000
    Si1150   Si       0.12907    0.84007    0.14205    1.000
    N1151    N        0.20435    0.80480    0.12435    1.000
    Si1152   Si       0.16962    0.77956    0.13097    1.000
    N1153    N        0.14651    0.80360    0.15725    1.000
    N1154    N        0.20775    0.87316    0.12640    1.000
    Si1155   Si       0.23266    0.83715    0.12981    1.000
    N1156    N        0.13375    0.87839    0.16092    1.000
    Si1157   Si       0.08828    0.97017    0.14112    1.000
    N1158    N        0.01108    0.92658    0.14467    1.000
    N1159    N        0.07518    0.89897    0.12826    1.000
    Si1160   Si       0.10975    0.91452    0.15191    1.000
    Si1161   Si       0.04365    0.92749    0.11755    1.000
    N1162    N        0.17974    0.93933    0.16189    1.000
    Si1163   Si       0.20992    0.91358    0.14173    1.000
    N1164    N        0.12442    0.94783    0.12906    1.000
    Si1165   Si       0.15477    0.97174    0.15144    1.000
    N1166    N        0.17404    0.00751    0.13344    1.000
    N1167    N        0.07022    0.78007    0.19550    1.000
    Si1168   Si       0.08422    0.82019    0.19077    1.000
    N1169    N        0.00166    0.76628    0.21836    1.000
    N1170    N        0.04393    0.87319    0.18106    1.000
    N1171    N        0.06978    0.83906    0.22876    1.000
    Si1172   Si       0.04527    0.76437    0.22934    1.000
    N1173    N        0.12383    0.83178    0.20835    1.000
    Si1174   Si       0.15074    0.86825    0.20099    1.000
    Si1175   Si       0.15684    0.80542    0.19918    1.000
    N1176    N        0.18363    0.83906    0.20373    1.000
    N1177    N        0.16979    0.76941    0.21659    1.000
    Si1178   Si       0.22552    0.84150    0.20733    1.000
    Si1179   Si       0.05736    0.88075    0.22199    1.000
    N1180    N        0.03577    0.92204    0.22030    1.000
    Si1181   Si       0.07685    0.94011    0.21824    1.000
    Si1182   Si       0.01638    0.90757    0.18173    1.000
    N1183    N        0.08489    0.94388    0.17600    1.000
    Si1184   Si       0.19402    0.92890    0.20123    1.000
    Si1185   Si       0.15721    0.97863    0.22872    1.000
    N1186    N        0.19759    0.96690    0.22179    1.000
    N1187    N        0.16463    0.90469    0.22077    1.000
    N1188    N        0.13778    0.98698    0.18975    1.000
    N1189    N        0.22780    0.90981    0.18098    1.000
    N1190    N        0.05586    0.78603    0.26454    1.000
    Si1191   Si       0.04819    0.83166    0.26560    1.000
    N1192    N        0.02551    0.87299    0.25744    1.000
    Si1193   Si       0.11085    0.83565    0.25209    1.000
    N1194    N        0.01036    0.82236    0.28964    1.000
    Si1195   Si       0.16512    0.77674    0.26212    1.000
    N1196    N        0.20229    0.79376    0.27537    1.000
    N1197    N        0.12870    0.79604    0.26413    1.000
    N1198    N        0.13868    0.86309    0.26566    1.000
    Si1199   Si       0.10847    0.99786    0.26544    1.000
    N1200    N        0.07332    0.97371    0.24626    1.000
    Si1201   Si       0.01648    0.91457    0.25789    1.000
    Si1202   Si       0.05575    0.97834    0.28713    1.000
    N1203    N        0.02779    0.94406    0.28636    1.000
    N1204    N        0.09451    0.90346    0.23459    1.000
    N1205    N        0.13593    0.95382    0.25810    1.000
    Si1206   Si       0.22415    0.99881    0.23621    1.000
    N1207    N        0.22916    0.00037    0.28003    1.000
    Si1208   Si       0.13669    0.90804    0.25403    1.000
    Si1209   Si       0.09435    0.83747    0.32929    1.000
    Si1210   Si       0.01882    0.78249    0.30371    1.000
    N1211    N        0.05055    0.76632    0.32817    1.000
    N1212    N        0.10733    0.79581    0.33105    1.000
    Si1213   Si       0.09611    0.78315    0.28837    1.000
    N1214    N        0.08449    0.83906    0.28834    1.000
    Si1215   Si       0.21679    0.81822    0.30903    1.000
    N1216    N        0.19095    0.85356    0.31694    1.000
    N1217    N        0.12815    0.86232    0.33996    1.000
    N1218    N        0.22595    0.78890    0.34027    1.000
    Si1219   Si       0.15295    0.87042    0.30598    1.000
    N1220    N        0.02119    0.00311    0.29604    1.000
    N1221    N        0.09612    0.97426    0.30649    1.000
    N1222    N        0.15556    0.91240    0.30051    1.000
    Si1223   Si       0.14130    0.95291    0.30216    1.000
    Si1224   Si       0.21351    0.88359    0.33873    1.000
    N1225    N        0.16758    0.98565    0.31543    1.000
    N1226    N        0.00675    0.81139    0.39038    1.000
    Si1227   Si       0.03195    0.84531    0.38482    1.000
    Si1228   Si       0.07413    0.78604    0.35865    1.000
    N1229    N        0.06764    0.77476    0.39974    1.000
    N1230    N        0.06325    0.83121    0.35799    1.000
    N1231    N        0.00108    0.87594    0.38211    1.000
    Si1232   Si       0.20497    0.85227    0.39641    1.000
    N1233    N        0.22466    0.81332    0.40166    1.000
    Si1234   Si       0.14036    0.87014    0.38285    1.000
    Si1235   Si       0.09177    0.98848    0.34842    1.000
    N1236    N        0.01302    0.96821    0.35941    1.000
    N1237    N        0.07681    0.95506    0.37184    1.000
    Si1238   Si       0.03969    0.95506    0.39376    1.000
    N1239    N        0.10562    0.89369    0.39990    1.000
    Si1240   Si       0.11058    0.93548    0.39013    1.000
    N1241    N        0.18100    0.88521    0.37603    1.000
    N1242    N        0.19680    0.97705    0.38140    1.000
    N1243    N        0.12526    0.00507    0.36708    1.000
    Si1244   Si       0.16106    0.98311    0.35920    1.000
    Si1245   Si       0.18545    0.92987    0.37911    1.000
    N1246    N        0.22234    0.92487    0.35436    1.000
    N1247    N        0.14532    0.94259    0.36243    1.000
    Si1248   Si       0.23327    0.99484    0.36735    1.000
    N1249    N        0.02010    0.79098    0.45344    1.000
    N1250    N        0.04656    0.85636    0.42381    1.000
    Si1251   Si       0.02280    0.83465    0.45365    1.000
    Si1252   Si       0.02506    0.77942    0.41189    1.000
    N1253    N        0.11580    0.80834    0.46583    1.000
    Si1254   Si       0.14549    0.80393    0.43489    1.000
    Si1255   Si       0.22493    0.79278    0.43867    1.000
    Si1256   Si       0.17187    0.86789    0.44813    1.000
    N1257    N        0.15910    0.84205    0.41541    1.000
    N1258    N        0.18190    0.78578    0.45439    1.000
    N1259    N        0.21295    0.87190    0.43544    1.000
    N1260    N        0.13659    0.76360    0.41919    1.000
    Si1261   Si       0.06932    0.89161    0.42712    1.000
    Si1262   Si       0.99957    0.89294    0.42440    1.000
    N1263    N        0.04135    0.98604    0.42496    1.000
    Si1264   Si       0.07971    0.98489    0.44512    1.000
    N1265    N        0.03521    0.92119    0.42075    1.000
    N1266    N        0.10608    0.95379    0.42933    1.000
    Si1267   Si       0.04005    0.93810    0.46172    1.000
    N1268    N        0.17359    0.93634    0.42415    1.000
    N1269    N        0.22974    0.96199    0.45346    1.000
    Si1270   Si       0.13897    0.93448    0.44983    1.000
    Si1271   Si       0.19758    0.97243    0.42671    1.000
    N1272    N        0.03743    0.84122    0.49377    1.000
    N1273    N        0.10202    0.85759    0.51015    1.000
    Si1274   Si       0.09971    0.81372    0.50375    1.000
    Si1275   Si       0.06417    0.87625    0.50303    1.000
    N1276    N        0.99931    0.77692    0.51487    1.000
    Si1277   Si       0.02849    0.80874    0.51881    1.000
    N1278    N        0.06692    0.79000    0.51974    1.000
    Si1279   Si       0.99633    0.76031    0.47264    1.000
    N1280    N        0.16969    0.84739    0.48678    1.000
    Si1281   Si       0.19273    0.81210    0.48806    1.000
    Si1282   Si       0.13937    0.87677    0.50034    1.000
    N1283    N        0.23568    0.81669    0.47419    1.000
    Si1284   Si       0.03389    0.99087    0.51080    1.000
    N1285    N        0.00580    0.93539    0.48732    1.000
    N1286    N        0.06189    0.96987    0.48336    1.000
    N1287    N        0.00168    0.00301    0.48434    1.000
    N1288    N        0.06701    0.90349    0.46989    1.000
    Si1289   Si       0.15881    0.94874    0.52250    1.000
    Si1290   Si       0.23039    0.95253    0.49755    1.000
    N1291    N        0.14713    0.96117    0.48272    1.000
    Si1292   Si       0.14349    0.00298    0.46879    1.000
    N1293    N        0.13975    0.89340    0.46051    1.000
    N1294    N        0.01984    0.82525    0.55854    1.000
    Si1295   Si       0.09220    0.77112    0.55208    1.000
    Si1296   Si       0.03831    0.86409    0.56949    1.000
    Si1297   Si       0.99229    0.80562    0.58566    1.000
    Si1298   Si       0.16424    0.80954    0.55178    1.000
    N1299    N        0.16078    0.85054    0.56755    1.000
    N1300    N        0.12449    0.79975    0.53880    1.000
    N1301    N        0.19051    0.79017    0.52443    1.000
    N1302    N        0.03950    0.89253    0.53672    1.000
    N1303    N        0.02526    0.96448    0.54392    1.000
    Si1304   Si       0.01265    0.92442    0.52676    1.000
    Si1305   Si       0.04667    0.96269    0.58142    1.000
    Si1306   Si       0.15991    0.89321    0.56822    1.000
    N1307    N        0.13349    0.97132    0.54918    1.000
    N1308    N        0.20135    0.95385    0.53065    1.000
    Si1309   Si       0.21386    0.94754    0.57285    1.000
    N1310    N        0.15072    0.90657    0.52830    1.000
    Si1311   Si       0.08306    0.82151    0.61011    1.000
    N1312    N        0.08160    0.78039    0.59464    1.000
    N1313    N        0.00680    0.76594    0.59449    1.000
    N1314    N        0.01659    0.88022    0.60316    1.000
    N1315    N        0.04838    0.82542    0.63861    1.000
    N1316    N        0.07788    0.85863    0.58358    1.000
    N1317    N        0.12241    0.83159    0.62598    1.000
    Si1318   Si       0.19388    0.76722    0.61702    1.000
    N1319    N        0.17151    0.79377    0.59223    1.000
    Si1320   Si       0.16075    0.83288    0.60860    1.000
    N1321    N        0.19306    0.85113    0.62748    1.000
    N1322    N        0.23485    0.76476    0.60498    1.000
    N1323    N        0.07346    0.88616    0.64264    1.000
    Si1324   Si       0.09132    0.89531    0.60450    1.000
    N1325    N        0.00994    0.96455    0.60470    1.000
    N1326    N        0.06914    0.99906    0.59297    1.000
    N1327    N        0.07878    0.93546    0.58906    1.000
    Si1328   Si       0.21408    0.88712    0.61738    1.000
    N1329    N        0.12967    0.98693    0.61250    1.000
    N1330    N        0.13194    0.91024    0.59635    1.000
    Si1331   Si       0.17125    0.99969    0.61059    1.000
    N1332    N        0.20009    0.96894    0.61053    1.000
    N1333    N        0.19700    0.90812    0.58446    1.000
    Si1334   Si       0.11985    0.95304    0.58785    1.000
    Si1335   Si       0.04194    0.80642    0.67709    1.000
    N1336    N        0.99774    0.80554    0.68169    1.000
    N1337    N        0.06122    0.77208    0.69431    1.000
    N1338    N        0.00332    0.87591    0.67321    1.000
    Si1339   Si       0.03371    0.86697    0.64171    1.000
    N1340    N        0.21906    0.84978    0.68932    1.000
    N1341    N        0.20026    0.78596    0.65624    1.000
    Si1342   Si       0.21830    0.82662    0.65384    1.000
    Si1343   Si       0.21104    0.76408    0.69406    1.000
    N1344    N        0.00412    0.00111    0.66671    1.000
    N1345    N        0.10766    0.94583    0.67800    1.000
    Si1346   Si       0.07689    0.91625    0.67222    1.000
    N1347    N        0.04721    0.94591    0.65995    1.000
    Si1348   Si       0.07422    0.97356    0.68214    1.000
    Si1349   Si       0.01122    0.96251    0.64736    1.000
    Si1350   Si       0.20450    0.89122    0.69479    1.000
    Si1351   Si       0.20879    0.95455    0.65031    1.000
    N1352    N        0.17864    0.97270    0.67690    1.000
    Si1353   Si       0.14562    0.94820    0.69675    1.000
    N1354    N        0.21276    0.91150    0.65638    1.000
    Si1355   Si       0.07426    0.86474    0.72861    1.000
    N1356    N        0.00494    0.82050    0.74983    1.000
    Si1357   Si       0.00536    0.84355    0.70879    1.000
    N1358    N        0.04914    0.83863    0.70598    1.000
    N1359    N        0.11653    0.85879    0.72584    1.000
    N1360    N        0.21645    0.78945    0.72977    1.000
    Si1361   Si       0.22022    0.83320    0.72975    1.000
    N1362    N        0.18611    0.85834    0.74168    1.000
    Si1363   Si       0.15065    0.87971    0.73357    1.000
    N1364    N        0.06636    0.90366    0.71133    1.000
    N1365    N        0.05673    0.97133    0.72150    1.000
    Si1366   Si       0.04314    0.93166    0.73425    1.000
    N1367    N        0.00150    0.92681    0.72522    1.000
    N1368    N        0.14160    0.97115    0.73342    1.000
    N1369    N        0.22285    0.91124    0.72879    1.000
    N1370    N        0.16223    0.90729    0.69988    1.000
    N1371    N        0.06253    0.79106    0.79137    1.000
    Si1372   Si       0.03656    0.82431    0.78000    1.000
    N1373    N        0.06127    0.85980    0.77025    1.000
    N1374    N        0.00751    0.82648    0.81176    1.000
    N1375    N        0.21626    0.86788    0.80214    1.000
    N1376    N        0.16028    0.76127    0.80340    1.000
    N1377    N        0.14620    0.85222    0.81720    1.000
    Si1378   Si       0.06254    0.89230    0.79893    1.000
    N1379    N        0.00129    0.96817    0.78236    1.000
    N1380    N        0.05909    0.92789    0.77319    1.000
    Si1381   Si       0.08000    0.96194    0.79475    1.000
    N1382    N        0.07604    0.00070    0.78080    1.000
    N1383    N        0.12158    0.95001    0.80092    1.000
    N1384    N        0.15680    0.90785    0.76718    1.000
    Si1385   Si       0.15052    0.95275    0.77084    1.000
    Si1386   Si       0.13783    0.89457    0.80489    1.000
    Si1387   Si       0.21199    0.96676    0.81139    1.000
    N1388    N        0.17543    0.98195    0.79296    1.000
    N1389    N        0.22025    0.93399    0.78468    1.000
    Si1390   Si       0.20239    0.89499    0.76631    1.000
    Si1391   Si       0.06411    0.79382    0.83620    1.000
    N1392    N        0.07053    0.83441    0.85254    1.000
    N1393    N        0.10131    0.78149    0.85192    1.000
    N1394    N        0.02680    0.77444    0.85112    1.000
    Si1395   Si       0.04923    0.86742    0.86917    1.000
    Si1396   Si       0.99167    0.79373    0.83501    1.000
    Si1397   Si       0.10985    0.85209    0.84459    1.000
    Si1398   Si       0.18872    0.84625    0.82912    1.000
    N1399    N        0.21311    0.80865    0.83346    1.000
    N1400    N        0.19039    0.86414    0.86973    1.000
    Si1401   Si       0.19954    0.76932    0.82234    1.000
    Si1402   Si       0.99138    0.89511    0.82668    1.000
    N1403    N        0.03356    0.88897    0.83143    1.000
    Si1404   Si       0.08757    0.92458    0.85406    1.000
    N1405    N        0.05789    0.95365    0.83360    1.000
    N1406    N        0.00208    0.99424    0.84736    1.000
    N1407    N        0.09837    0.89279    0.82539    1.000
    Si1408   Si       0.01581    0.96195    0.82296    1.000
    N1409    N        0.16333    0.91532    0.83361    1.000
    N1410    N        0.19578    0.96107    0.85274    1.000
    N1411    N        0.11942    0.94882    0.86895    1.000
    Si1412   Si       0.14782    0.96107    0.83718    1.000
    Si1413   Si       0.19590    0.91639    0.86262    1.000
    N1414    N        0.23911    0.90080    0.86174    1.000
    N1415    N        0.14015    0.00583    0.84243    1.000
    N1416    N        0.02143    0.85642    0.90012    1.000
    N1417    N        0.09436    0.78729    0.93250    1.000
    Si1418   Si       0.11044    0.79859    0.89096    1.000
    N1419    N        0.14584    0.77335    0.90353    1.000
    Si1420   Si       0.16479    0.85348    0.90263    1.000
    N1421    N        0.19175    0.82474    0.92487    1.000
    Si1422   Si       0.23012    0.86783    0.88787    1.000
    Si1423   Si       0.23174    0.80901    0.92223    1.000
    N1424    N        0.23378    0.76561    0.92599    1.000
    N1425    N        0.12768    0.83870    0.88352    1.000
    Si1426   Si       0.07474    0.91125    0.92676    1.000
    N1427    N        0.07140    0.90079    0.88624    1.000
    Si1428   Si       0.01796    0.97560    0.93938    1.000
    Si1429   Si       0.20278    0.98418    0.89148    1.000
    N1430    N        0.11369    0.92963    0.93701    1.000
    Si1431   Si       0.14056    0.94479    0.90666    1.000
    N1432    N        0.22879    0.88701    0.92677    1.000
    N1433    N        0.17413    0.91725    0.90364    1.000
    N1434    N        0.16254    0.98372    0.90985    1.000
    N1435    N        0.22659    0.95687    0.91253    1.000
    Si1436   Si       0.20468    0.92510    0.93428    1.000
    N1437    N        0.00377    0.87189    0.97292    1.000
    Si1438   Si       0.06941    0.79715    0.96488    1.000
    Si1439   Si       0.00391    0.77745    0.95105    1.000
    N1440    N        0.03159    0.81226    0.95393    1.000
    Si1441   Si       0.08736    0.86853    0.99010    1.000
    N1442    N        0.06835    0.87624    0.95161    1.000
    Si1443   Si       0.02922    0.85356    0.94239    1.000
    N1444    N        0.00713    0.76300    0.99191    1.000
    N1445    N        0.09044    0.82563    0.99141    1.000
    N1446    N        0.07690    0.76423    0.99278    1.000
    Si1447   Si       0.17129    0.83115    0.96196    1.000
    N1448    N        0.15049    0.79472    0.97663    1.000
    Si1449   Si       0.13267    0.77028    0.94408    1.000
    N1450    N        0.14842    0.86433    0.94366    1.000
    N1451    N        0.19698    0.84482    0.99393    1.000
    Si1452   Si       0.24059    0.84809    0.99073    1.000
    N1453    N        0.99534    0.98831    0.97653    1.000
    Si1454   Si       0.08744    0.95842    0.95960    1.000
    N1455    N        0.10377    0.99613    0.94664    1.000
    N1456    N        0.05085    0.94454    0.94216    1.000
    N1457    N        0.23558    0.95684    0.97678    1.000
    N1458    N        0.17818    0.92744    0.96685    1.000
    Si1459   Si       0.14357    0.90339    0.96110    1.000
    Si1460   Si       0.28818    0.10325    0.00943    1.000
    N1461    N        0.32993    0.04655    0.01737    1.000
    Si1462   Si       0.28400    0.03700    0.01371    1.000
    N1463    N        0.24973    0.11755    0.00559    1.000
    N1464    N        0.24506    0.04085    0.03517    1.000
    N1465    N        0.29326    0.08764    0.04927    1.000
    N1466    N        0.31894    0.13259    0.99756    1.000
    N1467    N        0.43463    0.08252    0.01804    1.000
    Si1468   Si       0.33442    0.16845    0.01406    1.000
    N1469    N        0.31257    0.17819    0.05078    1.000
    Si1470   Si       0.31891    0.24688    0.99753    1.000
    N1471    N        0.23632    0.17410    0.04314    1.000
    Si1472   Si       0.25894    0.25036    0.05297    1.000
    N1473    N        0.29956    0.25325    0.03563    1.000
    N1474    N        0.46638    0.23287    0.04808    1.000
    N1475    N        0.37720    0.16508    0.02381    1.000
    Si1476   Si       0.45484    0.25515    0.01310    1.000
    N1477    N        0.41256    0.25653    0.01167    1.000
    Si1478   Si       0.25494    0.03608    0.07595    1.000
    N1479    N        0.34743    0.06480    0.09178    1.000
    N1480    N        0.25715    0.07190    0.10109    1.000
    Si1481   Si       0.26415    0.10736    0.07553    1.000
    N1482    N        0.29597    0.02299    0.06850    1.000
    Si1483   Si       0.32159    0.05649    0.05877    1.000
    Si1484   Si       0.36017    0.10257    0.10936    1.000
    N1485    N        0.44410    0.05770    0.08527    1.000
    Si1486   Si       0.47476    0.02609    0.09056    1.000
    N1487    N        0.48552    0.11225    0.07081    1.000
    Si1488   Si       0.44622    0.09058    0.05771    1.000
    N1489    N        0.42743    0.13136    0.06439    1.000
    N1490    N        0.28395    0.14233    0.09526    1.000
    N1491    N        0.26745    0.21761    0.08263    1.000
    Si1492   Si       0.32469    0.15942    0.08901    1.000
    Si1493   Si       0.27129    0.17831    0.06520    1.000
    N1494    N        0.36173    0.13906    0.08564    1.000
    Si1495   Si       0.39412    0.15870    0.06392    1.000
    Si1496   Si       0.43784    0.23085    0.08260    1.000
    N1497    N        0.41478    0.19278    0.08363    1.000
    Si1498   Si       0.46395    0.15013    0.08134    1.000
    N1499    N        0.27435    0.09660    0.16143    1.000
    N1500    N        0.32880    0.11469    0.14066    1.000
    N1501    N        0.34003    0.04900    0.16239    1.000
    Si1502   Si       0.35204    0.03283    0.12249    1.000
    Si1503   Si       0.31578    0.08346    0.17027    1.000
    Si1504   Si       0.23865    0.08334    0.13964    1.000
    N1505    N        0.43663    0.05028    0.15990    1.000
    N1506    N        0.39325    0.08390    0.13119    1.000
    Si1507   Si       0.41908    0.05019    0.11917    1.000
    N1508    N        0.39127    0.01758    0.11374    1.000
    N1509    N        0.48652    0.09734    0.14984    1.000
    Si1510   Si       0.40629    0.08295    0.17245    1.000
    Si1511   Si       0.29092    0.13219    0.13758    1.000
    N1512    N        0.27689    0.23091    0.15248    1.000
    Si1513   Si       0.35421    0.20347    0.15176    1.000
    N1514    N        0.27369    0.15810    0.16646    1.000
    N1515    N        0.35740    0.24758    0.15317    1.000
    N1516    N        0.32616    0.19299    0.11898    1.000
    Si1517   Si       0.29646    0.22691    0.11222    1.000
    N1518    N        0.45650    0.15511    0.12393    1.000
    Si1519   Si       0.42483    0.18654    0.12660    1.000
    N1520    N        0.39137    0.18124    0.15241    1.000
    Si1521   Si       0.48024    0.24997    0.14493    1.000
    N1522    N        0.44736    0.22346    0.12716    1.000
    Si1523   Si       0.46510    0.14223    0.16455    1.000
    N1524    N        0.32105    0.07749    0.21250    1.000
    N1525    N        0.25132    0.08437    0.21780    1.000
    Si1526   Si       0.35198    0.04700    0.20665    1.000
    Si1527   Si       0.25886    0.12378    0.19530    1.000
    N1528    N        0.39157    0.06314    0.20731    1.000
    N1529    N        0.45837    0.07085    0.21883    1.000
    Si1530   Si       0.47298    0.06606    0.17943    1.000
    N1531    N        0.42469    0.12144    0.17948    1.000
    Si1532   Si       0.23948    0.23449    0.22737    1.000
    Si1533   Si       0.28810    0.19610    0.17801    1.000
    N1534    N        0.27387    0.21008    0.21648    1.000
    N1535    N        0.33005    0.19002    0.18660    1.000
    Si1536   Si       0.35235    0.19286    0.22477    1.000
    N1537    N        0.38297    0.16092    0.22377    1.000
    Si1538   Si       0.46570    0.20012    0.21672    1.000
    Si1539   Si       0.40584    0.15805    0.18668    1.000
    N1540    N        0.48408    0.23092    0.18980    1.000
    N1541    N        0.44450    0.17653    0.18963    1.000
    N1542    N        0.36917    0.23565    0.21930    1.000
    N1543    N        0.28460    0.08109    0.28085    1.000
    Si1544   Si       0.28951    0.09247    0.23883    1.000
    N1545    N        0.34979    0.05542    0.28095    1.000
    Si1546   Si       0.34300    0.01133    0.27311    1.000
    N1547    N        0.35936    0.12806    0.28017    1.000
    N1548    N        0.30166    0.01260    0.28983    1.000
    N1549    N        0.34877    0.01211    0.23067    1.000
    N1550    N        0.43544    0.01463    0.24927    1.000
    N1551    N        0.48206    0.11393    0.26869    1.000
    N1552    N        0.41561    0.07922    0.27484    1.000
    Si1553   Si       0.45923    0.01884    0.28541    1.000
    Si1554   Si       0.42279    0.05591    0.23947    1.000
    Si1555   Si       0.44352    0.10956    0.28569    1.000
    Si1556   Si       0.28307    0.17582    0.24443    1.000
    N1557    N        0.24457    0.17820    0.26926    1.000
    N1558    N        0.32429    0.18110    0.25717    1.000
    N1559    N        0.28585    0.13492    0.22887    1.000
    Si1560   Si       0.40016    0.23147    0.24872    1.000
    Si1561   Si       0.45340    0.25689    0.26948    1.000
    N1562    N        0.44165    0.22457    0.24279    1.000
    N1563    N        0.38533    0.19980    0.27450    1.000
    Si1564   Si       0.38961    0.15623    0.26565    1.000
    Si1565   Si       0.26397    0.10683    0.30948    1.000
    Si1566   Si       0.31044    0.05355    0.30107    1.000
    N1567    N        0.31956    0.05863    0.34100    1.000
    N1568    N        0.45829    0.09262    0.32416    1.000
    N1569    N        0.38627    0.08133    0.33379    1.000
    N1570    N        0.43006    0.02520    0.32090    1.000
    Si1571   Si       0.42492    0.06501    0.33471    1.000
    Si1572   Si       0.37492    0.09010    0.29090    1.000
    Si1573   Si       0.31166    0.24899    0.32505    1.000
    Si1574   Si       0.26300    0.17892    0.30840    1.000
    N1575    N        0.28598    0.21598    0.31275    1.000
    N1576    N        0.34623    0.17476    0.32643    1.000
    Si1577   Si       0.25273    0.24407    0.30581    1.000
    N1578    N        0.29002    0.14380    0.30625    1.000
    N1579    N        0.35353    0.24560    0.31494    1.000
    Si1580   Si       0.32792    0.15435    0.29133    1.000
    N1581    N        0.47568    0.17698    0.30668    1.000
    N1582    N        0.47866    0.24920    0.30251    1.000
    Si1583   Si       0.43774    0.16668    0.32685    1.000
    Si1584   Si       0.37358    0.20733    0.31632    1.000
    N1585    N        0.41186    0.20060    0.33748    1.000
    N1586    N        0.42210    0.14544    0.29161    1.000
    Si1587   Si       0.30113    0.08169    0.37435    1.000
    N1588    N        0.34318    0.07269    0.39591    1.000
    Si1589   Si       0.35962    0.05865    0.35893    1.000
    N1590    N        0.31486    0.12424    0.37276    1.000
    N1591    N        0.25925    0.08668    0.34883    1.000
    N1592    N        0.37493    0.01904    0.36796    1.000
    Si1593   Si       0.44650    0.03558    0.40032    1.000
    N1594    N        0.43435    0.06883    0.37701    1.000
    Si1595   Si       0.45538    0.10638    0.36607    1.000
    N1596    N        0.48896    0.10890    0.39360    1.000
    Si1597   Si       0.34196    0.16252    0.36657    1.000
    Si1598   Si       0.28163    0.15624    0.37806    1.000
    N1599    N        0.30957    0.18736    0.38268    1.000
    Si1600   Si       0.32564    0.22711    0.39067    1.000
    N1601    N        0.25013    0.16863    0.35027    1.000
    N1602    N        0.37067    0.23133    0.38525    1.000
    N1603    N        0.43208    0.14249    0.36438    1.000
    Si1604   Si       0.41420    0.15811    0.40109    1.000
    Si1605   Si       0.41272    0.22391    0.37359    1.000
    N1606    N        0.37160    0.15088    0.39495    1.000
    Si1607   Si       0.47956    0.25093    0.37750    1.000
    Si1608   Si       0.28081    0.11289    0.43834    1.000
    Si1609   Si       0.25978    0.04062    0.42020    1.000
    Si1610   Si       0.35176    0.06557    0.43900    1.000
    N1611    N        0.35483    0.02309    0.44003    1.000
    N1612    N        0.28216    0.07684    0.41381    1.000
    N1613    N        0.32255    0.12494    0.44372    1.000
    Si1614   Si       0.34887    0.11741    0.40852    1.000
    N1615    N        0.48641    0.04412    0.41919    1.000
    N1616    N        0.41861    0.02129    0.42945    1.000
    N1617    N        0.38094    0.09783    0.43338    1.000
    Si1618   Si       0.41133    0.11019    0.46200    1.000
    Si1619   Si       0.42930    0.03327    0.46873    1.000
    N1620    N        0.33001    0.23843    0.43250    1.000
    N1621    N        0.26272    0.14661    0.41438    1.000
    Si1622   Si       0.36676    0.25941    0.41978    1.000
    Si1623   Si       0.41864    0.22179    0.44799    1.000
    N1624    N        0.48537    0.24498    0.41974    1.000
    N1625    N        0.43528    0.13491    0.43633    1.000
    Si1626   Si       0.47783    0.13518    0.42961    1.000
    N1627    N        0.42177    0.20056    0.40950    1.000
    Si1628   Si       0.32539    0.05446    0.51229    1.000
    Si1629   Si       0.34486    0.12212    0.48255    1.000
    Si1630   Si       0.25210    0.06632    0.49103    1.000
    N1631    N        0.34373    0.07757    0.48117    1.000
    N1632    N        0.28426    0.06564    0.51819    1.000
    N1633    N        0.32299    0.01256    0.50040    1.000
    N1634    N        0.25060    0.10413    0.46890    1.000
    N1635    N        0.26456    0.03276    0.46303    1.000
    N1636    N        0.43438    0.07625    0.47935    1.000
    Si1637   Si       0.44821    0.07747    0.51957    1.000
    N1638    N        0.39808    0.02026    0.49553    1.000
    N1639    N        0.48284    0.10318    0.52635    1.000
    N1640    N        0.46623    0.01086    0.47975    1.000
    N1641    N        0.38647    0.13150    0.49168    1.000
    N1642    N        0.32129    0.14603    0.51084    1.000
    N1643    N        0.28785    0.20048    0.48172    1.000
    Si1644   Si       0.29438    0.17883    0.52104    1.000
    Si1645   Si       0.24506    0.20086    0.49046    1.000
    N1646    N        0.32924    0.25683    0.50387    1.000
    Si1647   Si       0.30767    0.23723    0.46979    1.000
    Si1648   Si       0.40408    0.16904    0.50195    1.000
    Si1649   Si       0.46831    0.20135    0.50903    1.000
    N1650    N        0.39349    0.19557    0.47126    1.000
    N1651    N        0.44674    0.16244    0.51451    1.000
    N1652    N        0.45840    0.21562    0.47003    1.000
    Si1653   Si       0.26112    0.05632    0.55357    1.000
    N1654    N        0.34681    0.06240    0.54946    1.000
    N1655    N        0.27986    0.01901    0.56989    1.000
    N1656    N        0.35378    0.12737    0.56629    1.000
    Si1657   Si       0.32992    0.09153    0.57618    1.000
    N1658    N        0.28821    0.08444    0.57949    1.000
    Si1659   Si       0.39297    0.11478    0.58016    1.000
    Si1660   Si       0.37143    0.03806    0.57559    1.000
    N1661    N        0.42682    0.10488    0.55195    1.000
    N1662    N        0.44429    0.04336    0.54672    1.000
    Si1663   Si       0.43770    0.07180    0.58027    1.000
    Si1664   Si       0.42001    0.01266    0.53025    1.000
    N1665    N        0.32497    0.25555    0.57447    1.000
    N1666    N        0.25298    0.18815    0.53278    1.000
    Si1667   Si       0.34783    0.16247    0.54420    1.000
    N1668    N        0.32276    0.19765    0.55036    1.000
    Si1669   Si       0.34464    0.23609    0.53921    1.000
    Si1670   Si       0.24141    0.20817    0.56970    1.000
    Si1671   Si       0.41222    0.21555    0.55416    1.000
    N1672    N        0.38647    0.24753    0.54202    1.000
    Si1673   Si       0.48391    0.24171    0.56954    1.000
    Si1674   Si       0.45801    0.13356    0.54464    1.000
    N1675    N        0.38714    0.18169    0.54238    1.000
    N1676    N        0.45357    0.22488    0.54200    1.000
    N1677    N        0.47139    0.14865    0.58251    1.000
    Si1678   Si       0.26402    0.07837    0.61599    1.000
    N1679    N        0.34496    0.02776    0.60774    1.000
    N1680    N        0.33895    0.09039    0.61917    1.000
    Si1681   Si       0.30249    0.01900    0.60589    1.000
    N1682    N        0.27984    0.04259    0.63488    1.000
    Si1683   Si       0.36324    0.05667    0.63388    1.000
    N1684    N        0.47231    0.08133    0.60417    1.000
    N1685    N        0.39661    0.06964    0.59401    1.000
    N1686    N        0.48055    0.01167    0.62972    1.000
    N1687    N        0.33135    0.21193    0.62651    1.000
    N1688    N        0.26947    0.22176    0.59874    1.000
    Si1689   Si       0.25224    0.24033    0.63573    1.000
    Si1690   Si       0.31046    0.21826    0.58941    1.000
    N1691    N        0.38945    0.25497    0.62662    1.000
    Si1692   Si       0.44424    0.17153    0.60765    1.000
    N1693    N        0.40901    0.14352    0.60759    1.000
    Si1694   Si       0.43116    0.24088    0.62183    1.000
    N1695    N        0.42277    0.20705    0.59450    1.000
    N1696    N        0.33664    0.06114    0.67157    1.000
    Si1697   Si       0.29414    0.04736    0.67563    1.000
    Si1698   Si       0.32322    0.10531    0.65710    1.000
    N1699    N        0.27977    0.10599    0.64924    1.000
    Si1700   Si       0.47399    0.02335    0.67164    1.000
    N1701    N        0.45916    0.06523    0.68060    1.000
    N1702    N        0.41353    0.11816    0.66652    1.000
    N1703    N        0.39947    0.04272    0.65641    1.000
    Si1704   Si       0.41883    0.07645    0.67360    1.000
    Si1705   Si       0.49328    0.09129    0.67157    1.000
    Si1706   Si       0.25551    0.13463    0.67211    1.000
    N1707    N        0.34984    0.14298    0.65451    1.000
    N1708    N        0.28389    0.23574    0.66521    1.000
    Si1709   Si       0.30307    0.19909    0.65773    1.000
    N1710    N        0.32685    0.19179    0.69378    1.000
    N1711    N        0.26945    0.17319    0.65495    1.000
    Si1712   Si       0.34376    0.15261    0.69650    1.000
    N1713    N        0.36452    0.24862    0.68201    1.000
    N1714    N        0.39777    0.19045    0.65645    1.000
    Si1715   Si       0.43617    0.20227    0.67882    1.000
    Si1716   Si       0.39097    0.14963    0.64644    1.000
    Si1717   Si       0.48484    0.16225    0.66804    1.000
    N1718    N        0.43588    0.24852    0.66402    1.000
    N1719    N        0.45242    0.15875    0.69700    1.000
    N1720    N        0.46226    0.19061    0.64304    1.000
    Si1721   Si       0.36982    0.22112    0.64705    1.000
    Si1722   Si       0.28890    0.10260    0.72857    1.000
    N1723    N        0.33815    0.06199    0.74474    1.000
    Si1724   Si       0.35984    0.05404    0.70869    1.000
    N1725    N        0.27489    0.06766    0.70896    1.000
    N1726    N        0.25662    0.12911    0.71451    1.000
    N1727    N        0.32040    0.11835    0.70316    1.000
    N1728    N        0.43904    0.11681    0.74004    1.000
    N1729    N        0.39679    0.07730    0.71208    1.000
    Si1730   Si       0.41375    0.08259    0.75101    1.000
    N1731    N        0.37253    0.01229    0.70820    1.000
    Si1732   Si       0.34111    0.22868    0.71114    1.000
    N1733    N        0.30366    0.24540    0.72857    1.000
    N1734    N        0.36182    0.22187    0.74745    1.000
    N1735    N        0.38125    0.15591    0.71890    1.000
    Si1736   Si       0.38878    0.18855    0.74526    1.000
    Si1737   Si       0.41714    0.13492    0.70775    1.000
    N1738    N        0.48690    0.17240    0.75401    1.000
    N1739    N        0.47638    0.22916    0.70938    1.000
    Si1740   Si       0.47511    0.13787    0.72975    1.000
    N1741    N        0.42211    0.20580    0.72474    1.000
    Si1742   Si       0.46249    0.20696    0.74417    1.000
    Si1743   Si       0.33256    0.03450    0.77680    1.000
    N1744    N        0.34456    0.06382    0.80732    1.000
    Si1745   Si       0.33976    0.09665    0.77676    1.000
    N1746    N        0.29467    0.10587    0.77086    1.000
    Si1747   Si       0.25795    0.08387    0.79053    1.000
    N1748    N        0.24077    0.05236    0.76243    1.000
    N1749    N        0.29572    0.01469    0.78597    1.000
    Si1750   Si       0.25460    0.01365    0.77291    1.000
    N1751    N        0.38691    0.10220    0.77507    1.000
    N1752    N        0.48085    0.06925    0.81772    1.000
    N1753    N        0.43628    0.04648    0.75969    1.000
    N1754    N        0.34170    0.13780    0.79588    1.000
    Si1755   Si       0.29753    0.14474    0.79191    1.000
    N1756    N        0.29246    0.18515    0.77379    1.000
    N1757    N        0.31845    0.25177    0.79346    1.000
    Si1758   Si       0.36108    0.25145    0.77836    1.000
    Si1759   Si       0.29004    0.22893    0.76680    1.000
    N1760    N        0.24405    0.23550    0.76510    1.000
    N1761    N        0.45162    0.22720    0.78185    1.000
    Si1762   Si       0.48228    0.24906    0.80381    1.000
    N1763    N        0.38433    0.23629    0.81243    1.000
    N1764    N        0.39927    0.17419    0.78484    1.000
    Si1765   Si       0.41751    0.20837    0.80569    1.000
    Si1766   Si       0.38626    0.13690    0.80033    1.000
    Si1767   Si       0.28727    0.06329    0.86599    1.000
    N1768    N        0.29820    0.02092    0.85443    1.000
    N1769    N        0.25853    0.06598    0.83076    1.000
    N1770    N        0.30618    0.10302    0.86856    1.000
    Si1771   Si       0.36952    0.05295    0.84148    1.000
    N1772    N        0.41078    0.06874    0.84588    1.000
    Si1773   Si       0.44915    0.04839    0.83943    1.000
    Si1774   Si       0.41330    0.10524    0.86861    1.000
    Si1775   Si       0.25250    0.25654    0.87097    1.000
    Si1776   Si       0.28096    0.13709    0.86432    1.000
    N1777    N        0.32983    0.23964    0.86106    1.000
    N1778    N        0.26739    0.14300    0.82397    1.000
    N1779    N        0.29681    0.17436    0.87819    1.000
    N1780    N        0.43027    0.20377    0.84740    1.000
    N1781    N        0.36600    0.19181    0.86952    1.000
    Si1782   Si       0.37292    0.23398    0.85415    1.000
    Si1783   Si       0.40380    0.17368    0.86518    1.000
    Si1784   Si       0.43917    0.24057    0.86739    1.000
    N1785    N        0.40092    0.13681    0.84182    1.000
    N1786    N        0.27287    0.05895    0.90839    1.000
    Si1787   Si       0.34170    0.09677    0.89519    1.000
    N1788    N        0.34739    0.05592    0.88124    1.000
    Si1789   Si       0.33564    0.01446    0.87580    1.000
    N1790    N        0.38141    0.11508    0.89984    1.000
    Si1791   Si       0.44519    0.05908    0.91363    1.000
    N1792    N        0.40883    0.03583    0.91495    1.000
    N1793    N        0.44675    0.10037    0.89584    1.000
    Si1794   Si       0.48408    0.12168    0.90460    1.000
    N1795    N        0.46385    0.03575    0.87944    1.000
    N1796    N        0.24376    0.14275    0.88873    1.000
    Si1797   Si       0.25385    0.18347    0.89100    1.000
    N1798    N        0.32432    0.21295    0.92579    1.000
    N1799    N        0.25397    0.20131    0.93109    1.000
    Si1800   Si       0.28606    0.23025    0.93360    1.000
    Si1801   Si       0.32762    0.20214    0.88347    1.000
    N1802    N        0.48861    0.16302    0.91944    1.000
    N1803    N        0.42156    0.16752    0.90412    1.000
    Si1804   Si       0.45774    0.18867    0.91122    1.000
    N1805    N        0.45658    0.23039    0.90683    1.000
    Si1806   Si       0.40099    0.13968    0.92891    1.000
    Si1807   Si       0.34543    0.11872    0.96637    1.000
    N1808    N        0.32795    0.03668    0.95136    1.000
    N1809    N        0.27801    0.06989    0.98073    1.000
    Si1810   Si       0.35629    0.04606    0.98043    1.000
    Si1811   Si       0.29752    0.06539    0.94339    1.000
    N1812    N        0.32062    0.10250    0.93563    1.000
    N1813    N        0.37314    0.08758    0.97912    1.000
    Si1814   Si       0.41662    0.09301    0.97968    1.000
    N1815    N        0.44558    0.07048    0.95622    1.000
    Si1816   Si       0.47034    0.07274    0.99354    1.000
    N1817    N        0.38555    0.01267    0.97276    1.000
    Si1818   Si       0.35158    0.19839    0.95461    1.000
    N1819    N        0.28361    0.25120    0.97087    1.000
    N1820    N        0.32945    0.20522    0.99214    1.000
    N1821    N        0.36416    0.15690    0.95430    1.000
    N1822    N        0.41986    0.13488    0.96736    1.000
    Si1823   Si       0.39736    0.16800    0.98539    1.000
    Si1824   Si       0.39233    0.25331    0.97328    1.000
    N1825    N        0.47500    0.24580    0.97432    1.000
    N1826    N        0.39159    0.20938    0.96750    1.000
    N1827    N        0.35441    0.29499    0.04243    1.000
    N1828    N        0.35524    0.36263    0.05363    1.000
    N1829    N        0.24263    0.29997    0.99754    1.000
    Si1830   Si       0.36776    0.33434    0.02430    1.000
    Si1831   Si       0.39503    0.27931    0.04453    1.000
    N1832    N        0.40764    0.32252    0.03155    1.000
    Si1833   Si       0.44958    0.32915    0.03952    1.000
    N1834    N        0.46970    0.29487    0.01944    1.000
    N1835    N        0.46281    0.36248    0.01527    1.000
    Si1836   Si       0.26003    0.43762    0.00586    1.000
    Si1837   Si       0.28953    0.49972    0.02715    1.000
    N1838    N        0.33712    0.42612    0.04153    1.000
    N1839    N        0.27964    0.45887    0.03896    1.000
    N1840    N        0.32257    0.48202    0.00098    1.000
    Si1841   Si       0.33019    0.43649    0.00051    1.000
    Si1842   Si       0.45435    0.40575    0.01360    1.000
    N1843    N        0.46892    0.42300    0.05099    1.000
    N1844    N        0.39188    0.47337    0.00559    1.000
    Si1845   Si       0.36322    0.49333    0.03015    1.000
    Si1846   Si       0.39459    0.42916    0.99973    1.000
    N1847    N        0.40715    0.41221    0.03685    1.000
    Si1848   Si       0.33585    0.34430    0.08843    1.000
    N1849    N        0.30137    0.32247    0.07171    1.000
    Si1850   Si       0.25858    0.32624    0.07718    1.000
    Si1851   Si       0.31866    0.28377    0.06209    1.000
    N1852    N        0.24371    0.28454    0.07487    1.000
    N1853    N        0.31801    0.26209    0.10042    1.000
    N1854    N        0.35411    0.31544    0.11329    1.000
    Si1855   Si       0.47350    0.36426    0.10327    1.000
    N1856    N        0.45453    0.33152    0.08127    1.000
    N1857    N        0.41553    0.26714    0.08093    1.000
    Si1858   Si       0.44043    0.29717    0.10357    1.000
    N1859    N        0.47749    0.27497    0.10546    1.000
    Si1860   Si       0.32783    0.49865    0.09202    1.000
    N1861    N        0.30891    0.46060    0.10041    1.000
    N1862    N        0.27440    0.40109    0.07109    1.000
    Si1863   Si       0.30139    0.43522    0.06625    1.000
    N1864    N        0.42830    0.46103    0.09329    1.000
    N1865    N        0.44447    0.39611    0.10769    1.000
    Si1866   Si       0.36882    0.40328    0.05732    1.000
    N1867    N        0.36585    0.48848    0.07415    1.000
    N1868    N        0.47528    0.49608    0.06983    1.000
    Si1869   Si       0.42825    0.42199    0.07638    1.000
    N1870    N        0.38493    0.41175    0.09676    1.000
    Si1871   Si       0.39892    0.49364    0.10394    1.000
    Si1872   Si       0.47185    0.46624    0.10067    1.000
    Si1873   Si       0.33469    0.28200    0.13674    1.000
    N1874    N        0.29634    0.29707    0.15752    1.000
    Si1875   Si       0.26086    0.26985    0.16220    1.000
    N1876    N        0.25562    0.34815    0.11579    1.000
    N1877    N        0.32123    0.37623    0.11429    1.000
    N1878    N        0.38080    0.36938    0.14863    1.000
    Si1879   Si       0.37863    0.32627    0.14641    1.000
    N1880    N        0.41945    0.31365    0.13961    1.000
    N1881    N        0.47141    0.28667    0.16905    1.000
    N1882    N        0.30297    0.47764    0.16966    1.000
    Si1883   Si       0.34294    0.38899    0.14996    1.000
    N1884    N        0.34545    0.43308    0.15252    1.000
    Si1885   Si       0.30500    0.44661    0.13948    1.000
    N1886    N        0.27100    0.41751    0.13789    1.000
    Si1887   Si       0.27987    0.38382    0.11188    1.000
    N1888    N        0.46886    0.50134    0.13080    1.000
    N1889    N        0.38615    0.49235    0.14732    1.000
    Si1890   Si       0.40706    0.39820    0.13112    1.000
    N1891    N        0.41164    0.42625    0.16390    1.000
    Si1892   Si       0.38029    0.45507    0.16795    1.000
    Si1893   Si       0.25482    0.31205    0.21794    1.000
    N1894    N        0.32011    0.36852    0.18241    1.000
    Si1895   Si       0.31717    0.32293    0.18664    1.000
    N1896    N        0.24378    0.27013    0.20327    1.000
    N1897    N        0.29710    0.31419    0.22431    1.000
    N1898    N        0.24016    0.33902    0.18766    1.000
    N1899    N        0.35457    0.30636    0.17699    1.000
    Si1900   Si       0.48183    0.36807    0.18212    1.000
    Si1901   Si       0.37204    0.26892    0.19047    1.000
    N1902    N        0.41148    0.28497    0.20191    1.000
    N1903    N        0.44733    0.34762    0.19907    1.000
    Si1904   Si       0.43781    0.31126    0.17710    1.000
    Si1905   Si       0.48423    0.27280    0.20780    1.000
    Si1906   Si       0.31230    0.38523    0.22223    1.000
    N1907    N        0.24585    0.43945    0.20205    1.000
    Si1908   Si       0.28537    0.45827    0.20565    1.000
    N1909    N        0.31593    0.42874    0.22056    1.000
    Si1910   Si       0.23962    0.39356    0.20279    1.000
    N1911    N        0.47854    0.41119    0.17756    1.000
    Si1912   Si       0.44282    0.42875    0.19321    1.000
    N1913    N        0.38150    0.46028    0.21365    1.000
    Si1914   Si       0.41615    0.48651    0.22567    1.000
    N1915    N        0.44735    0.47142    0.20012    1.000
    N1916    N        0.43726    0.40872    0.23121    1.000
    Si1917   Si       0.47171    0.49602    0.17400    1.000
    Si1918   Si       0.31730    0.32553    0.25997    1.000
    N1919    N        0.33933    0.36408    0.25043    1.000
    N1920    N        0.35221    0.30839    0.27866    1.000
    N1921    N        0.28707    0.34062    0.28689    1.000
    Si1922   Si       0.25625    0.36296    0.26979    1.000
    N1923    N        0.27084    0.37849    0.23049    1.000
    Si1924   Si       0.37256    0.34981    0.27622    1.000
    N1925    N        0.46231    0.28785    0.24122    1.000
    N1926    N        0.40809    0.34042    0.25311    1.000
    N1927    N        0.47199    0.36106    0.26901    1.000
    Si1928   Si       0.42019    0.30077    0.24149    1.000
    N1929    N        0.40886    0.26803    0.27368    1.000
    Si1930   Si       0.43946    0.36443    0.23836    1.000
    Si1931   Si       0.35112    0.44637    0.24024    1.000
    N1932    N        0.33594    0.47787    0.26672    1.000
    Si1933   Si       0.29221    0.48258    0.27237    1.000
    N1934    N        0.27879    0.49146    0.23287    1.000
    N1935    N        0.42278    0.47246    0.26668    1.000
    N1936    N        0.37277    0.42338    0.27201    1.000
    Si1937   Si       0.41602    0.43031    0.26303    1.000
    Si1938   Si       0.28070    0.31669    0.32215    1.000
    N1939    N        0.28129    0.27669    0.31084    1.000
    Si1940   Si       0.33512    0.36129    0.34269    1.000
    N1941    N        0.31409    0.32551    0.34731    1.000
    N1942    N        0.36615    0.36916    0.31403    1.000
    Si1943   Si       0.47679    0.34826    0.30999    1.000
    N1944    N        0.45535    0.31306    0.32170    1.000
    Si1945   Si       0.37614    0.28023    0.30276    1.000
    N1946    N        0.38975    0.30236    0.33606    1.000
    N1947    N        0.24623    0.38897    0.30358    1.000
    Si1948   Si       0.26537    0.47681    0.33626    1.000
    N1949    N        0.31131    0.39835    0.33353    1.000
    N1950    N        0.26253    0.46105    0.29272    1.000
    Si1951   Si       0.26730    0.40112    0.33933    1.000
    N1952    N        0.30967    0.46909    0.34477    1.000
    N1953    N        0.42716    0.41328    0.30243    1.000
    Si1954   Si       0.38375    0.40984    0.31534    1.000
    Si1955   Si       0.46981    0.41898    0.30678    1.000
    Si1956   Si       0.44119    0.48745    0.30477    1.000
    N1957    N        0.42397    0.49802    0.34364    1.000
    N1958    N        0.47028    0.46025    0.32283    1.000
    N1959    N        0.48404    0.38728    0.33096    1.000
    N1960    N        0.37271    0.43050    0.35259    1.000
    Si1961   Si       0.31749    0.29946    0.38246    1.000
    Si1962   Si       0.25890    0.33662    0.38429    1.000
    N1963    N        0.26903    0.37741    0.37651    1.000
    N1964    N        0.35506    0.29825    0.40391    1.000
    N1965    N        0.35839    0.36191    0.38151    1.000
    N1966    N        0.30916    0.25932    0.36760    1.000
    N1967    N        0.24556    0.32254    0.34662    1.000
    N1968    N        0.42445    0.32554    0.39077    1.000
    Si1969   Si       0.38198    0.33212    0.40117    1.000
    Si1970   Si       0.42847    0.30101    0.35488    1.000
    N1971    N        0.43778    0.26022    0.36908    1.000
    Si1972   Si       0.24479    0.45382    0.40000    1.000
    Si1973   Si       0.32909    0.43366    0.35452    1.000
    N1974    N        0.32380    0.42312    0.39692    1.000
    N1975    N        0.25488    0.43969    0.35915    1.000
    Si1976   Si       0.39418    0.43771    0.39252    1.000
    N1977    N        0.43632    0.43987    0.38631    1.000
    Si1978   Si       0.45161    0.47220    0.36450    1.000
    Si1979   Si       0.27918    0.30241    0.44952    1.000
    N1980    N        0.27358    0.26107    0.45619    1.000
    N1981    N        0.28517    0.31336    0.40899    1.000
    N1982    N        0.31531    0.37599    0.43685    1.000
    Si1983   Si       0.45259    0.33128    0.42485    1.000
    N1984    N        0.39200    0.33901    0.44449    1.000
    N1985    N        0.45244    0.37119    0.44378    1.000
    Si1986   Si       0.41078    0.37975    0.45081    1.000
    Si1987   Si       0.40128    0.30270    0.46550    1.000
    N1988    N        0.44467    0.30885    0.46211    1.000
    N1989    N        0.39998    0.26245    0.44697    1.000
    N1990    N        0.31779    0.47227    0.45462    1.000
    N1991    N        0.26351    0.48864    0.41570    1.000
    N1992    N        0.25680    0.42248    0.42564    1.000
    Si1993   Si       0.34090    0.49400    0.42440    1.000
    Si1994   Si       0.27962    0.49133    0.45566    1.000
    Si1995   Si       0.28891    0.39808    0.41046    1.000
    Si1996   Si       0.34853    0.38970    0.41355    1.000
    N1997    N        0.38834    0.40527    0.42288    1.000
    Si1998   Si       0.39876    0.49531    0.44299    1.000
    N1999    N        0.37756    0.47203    0.41270    1.000
    Si2000   Si       0.33646    0.30008    0.50679    1.000
    Si2001   Si       0.30237    0.36350    0.47847    1.000
    N2002    N        0.30778    0.31954    0.47885    1.000
    N2003    N        0.26214    0.37987    0.47723    1.000
    N2004    N        0.32867    0.38062    0.50732    1.000
    N2005    N        0.38119    0.30199    0.50314    1.000
    Si2006   Si       0.46991    0.30722    0.49479    1.000
    N2007    N        0.48349    0.34751    0.50444    1.000
    Si2008   Si       0.48208    0.37873    0.47487    1.000
    N2009    N        0.24864    0.47827    0.48316    1.000
    Si2010   Si       0.32884    0.46711    0.49563    1.000
    N2011    N        0.29917    0.44862    0.52020    1.000
    Si2012   Si       0.26046    0.46735    0.52264    1.000
    N2013    N        0.34105    0.50457    0.51213    1.000
    Si2014   Si       0.39556    0.47289    0.52001    1.000
    N2015    N        0.48917    0.48639    0.47641    1.000
    N2016    N        0.36413    0.44423    0.50242    1.000
    N2017    N        0.40512    0.39224    0.49167    1.000
    Si2018   Si       0.36843    0.40198    0.51079    1.000
    N2019    N        0.41547    0.48731    0.48319    1.000
    N2020    N        0.47337    0.41652    0.49642    1.000
    Si2021   Si       0.43578    0.40932    0.51837    1.000
    N2022    N        0.33130    0.32152    0.54320    1.000
    Si2023   Si       0.33431    0.36250    0.54772    1.000
    Si2024   Si       0.31442    0.29753    0.57626    1.000
    N2025    N        0.27246    0.29772    0.57758    1.000
    N2026    N        0.30239    0.38378    0.56979    1.000
    Si2027   Si       0.40172    0.28666    0.53817    1.000
    Si2028   Si       0.45120    0.30345    0.57525    1.000
    N2029    N        0.44463    0.29950    0.53085    1.000
    N2030    N        0.40479    0.30346    0.57956    1.000
    Si2031   Si       0.48660    0.36313    0.54656    1.000
    N2032    N        0.44895    0.38431    0.55391    1.000
    Si2033   Si       0.30883    0.42720    0.55664    1.000
    N2034    N        0.27930    0.44939    0.58071    1.000
    N2035    N        0.26458    0.50661    0.54015    1.000
    N2036    N        0.34328    0.43917    0.58266    1.000
    N2037    N        0.37101    0.38743    0.55193    1.000
    Si2038   Si       0.38455    0.42474    0.57333    1.000
    N2039    N        0.39149    0.50221    0.55199    1.000
    N2040    N        0.41366    0.43940    0.54086    1.000
    N2041    N        0.27724    0.34139    0.62322    1.000
    N2042    N        0.34030    0.30997    0.60975    1.000
    Si2043   Si       0.24974    0.31284    0.60878    1.000
    Si2044   Si       0.27578    0.37892    0.60321    1.000
    N2045    N        0.24123    0.28233    0.63787    1.000
    Si2046   Si       0.38119    0.29545    0.61573    1.000
    N2047    N        0.45556    0.36642    0.62126    1.000
    N2048    N        0.45658    0.26545    0.59661    1.000
    N2049    N        0.28954    0.40773    0.63345    1.000
    N2050    N        0.30252    0.48031    0.63248    1.000
    Si2051   Si       0.31584    0.44069    0.61916    1.000
    Si2052   Si       0.28563    0.49138    0.58385    1.000
    N2053    N        0.34733    0.42457    0.64582    1.000
    N2054    N        0.40815    0.42077    0.60786    1.000
    N2055    N        0.47994    0.42853    0.59767    1.000
    Si2056   Si       0.48222    0.44078    0.63984    1.000
    Si2057   Si       0.44615    0.40086    0.59339    1.000
    N2058    N        0.47483    0.48268    0.64292    1.000
    N2059    N        0.30579    0.29954    0.67506    1.000
    N2060    N        0.33675    0.35676    0.66074    1.000
    Si2061   Si       0.28663    0.26696    0.69461    1.000
    Si2062   Si       0.31365    0.32666    0.64283    1.000
    Si2063   Si       0.37505    0.34796    0.67875    1.000
    N2064    N        0.46192    0.35194    0.68859    1.000
    Si2065   Si       0.39935    0.27424    0.67423    1.000
    N2066    N        0.39052    0.31130    0.65711    1.000
    Si2067   Si       0.44190    0.37824    0.66190    1.000
    N2068    N        0.39982    0.38137    0.66501    1.000
    Si2069   Si       0.45696    0.26752    0.69864    1.000
    Si2070   Si       0.31911    0.39618    0.66504    1.000
    N2071    N        0.27278    0.49888    0.69172    1.000
    N2072    N        0.45442    0.41855    0.66437    1.000
    N2073    N        0.36424    0.50157    0.65518    1.000
    Si2074   Si       0.39108    0.42351    0.65008    1.000
    Si2075   Si       0.36885    0.48083    0.69322    1.000
    Si2076   Si       0.43444    0.43353    0.69954    1.000
    Si2077   Si       0.47803    0.49591    0.68453    1.000
    N2078    N        0.39657    0.44642    0.68594    1.000
    N2079    N        0.26400    0.37158    0.75096    1.000
    Si2080   Si       0.35792    0.36399    0.75732    1.000
    N2081    N        0.24712    0.28016    0.70508    1.000
    N2082    N        0.37932    0.34485    0.72185    1.000
    Si2083   Si       0.40131    0.31075    0.74166    1.000
    Si2084   Si       0.45329    0.35998    0.73088    1.000
    N2085    N        0.41795    0.28356    0.71309    1.000
    N2086    N        0.43945    0.32852    0.75555    1.000
    N2087    N        0.31636    0.39847    0.70868    1.000
    Si2088   Si       0.28461    0.40580    0.73853    1.000
    N2089    N        0.26234    0.43667    0.71750    1.000
    Si2090   Si       0.29200    0.47037    0.71871    1.000
    Si2091   Si       0.34093    0.42511    0.73233    1.000
    N2092    N        0.33399    0.46053    0.71109    1.000
    N2093    N        0.29133    0.50202    0.74993    1.000
    N2094    N        0.45574    0.47065    0.71062    1.000
    Si2095   Si       0.45154    0.47831    0.75260    1.000
    N2096    N        0.37234    0.40442    0.75356    1.000
    N2097    N        0.38013    0.50600    0.72975    1.000
    N2098    N        0.43819    0.40212    0.72934    1.000
    Si2099   Si       0.41447    0.41667    0.76303    1.000
    Si2100   Si       0.28067    0.33897    0.77453    1.000
    Si2101   Si       0.35090    0.31817    0.79790    1.000
    N2102    N        0.25967    0.30135    0.77124    1.000
    Si2103   Si       0.24783    0.30449    0.81399    1.000
    N2104    N        0.32433    0.33913    0.77000    1.000
    N2105    N        0.26598    0.34459    0.81563    1.000
    N2106    N        0.37528    0.35632    0.79819    1.000
    N2107    N        0.37508    0.29088    0.77274    1.000
    Si2108   Si       0.47676    0.32598    0.78088    1.000
    N2109    N        0.47781    0.34687    0.81759    1.000
    N2110    N        0.34747    0.48006    0.78562    1.000
    Si2111   Si       0.32902    0.44321    0.80159    1.000
    N2112    N        0.31139    0.42553    0.76688    1.000
    N2113    N        0.41554    0.45917    0.76528    1.000
    Si2114   Si       0.38732    0.49034    0.77241    1.000
    N2115    N        0.42550    0.39692    0.79748    1.000
    N2116    N        0.48392    0.46064    0.77425    1.000
    N2117    N        0.40002    0.51226    0.80764    1.000
    Si2118   Si       0.27925    0.36167    0.85419    1.000
    N2119    N        0.27114    0.27504    0.83737    1.000
    N2120    N        0.33276    0.30571    0.83568    1.000
    Si2121   Si       0.31252    0.26562    0.83364    1.000
    N2122    N        0.35661    0.35844    0.87560    1.000
    N2123    N        0.24522    0.38253    0.87171    1.000
    N2124    N        0.41536    0.37817    0.85547    1.000
    Si2125   Si       0.45066    0.38015    0.82799    1.000
    N2126    N        0.47028    0.26282    0.84621    1.000
    N2127    N        0.39843    0.25848    0.87719    1.000
    N2128    N        0.35103    0.48941    0.86453    1.000
    N2129    N        0.30383    0.39689    0.86293    1.000
    Si2130   Si       0.25672    0.47349    0.82487    1.000
    Si2131   Si       0.31530    0.50135    0.84187    1.000
    N2132    N        0.29794    0.46334    0.82594    1.000
    N2133    N        0.24259    0.44786    0.85606    1.000
    N2134    N        0.36257    0.42555    0.82467    1.000
    Si2135   Si       0.27047    0.41957    0.87527    1.000
    Si2136   Si       0.38923    0.39027    0.82022    1.000
    Si2137   Si       0.43763    0.49781    0.85309    1.000
    Si2138   Si       0.37142    0.45244    0.85850    1.000
    N2139    N        0.47774    0.40973    0.84198    1.000
    N2140    N        0.41236    0.46158    0.86329    1.000
    Si2141   Si       0.28110    0.33958    0.92469    1.000
    N2142    N        0.35502    0.30436    0.91473    1.000
    N2143    N        0.29553    0.33456    0.88419    1.000
    N2144    N        0.27462    0.26279    0.90883    1.000
    Si2145   Si       0.33629    0.32085    0.87625    1.000
    N2146    N        0.48150    0.29365    0.91325    1.000
    N2147    N        0.42031    0.32247    0.89703    1.000
    Si2148   Si       0.46139    0.33171    0.90884    1.000
    Si2149   Si       0.39568    0.28985    0.90872    1.000
    Si2150   Si       0.39791    0.35931    0.88952    1.000
    N2151    N        0.48031    0.35939    0.88389    1.000
    N2152    N        0.39333    0.37818    0.92920    1.000
    Si2153   Si       0.45987    0.26245    0.93694    1.000
    N2154    N        0.32541    0.38271    0.92985    1.000
    Si2155   Si       0.33687    0.39450    0.88989    1.000
    N2156    N        0.27567    0.43597    0.91566    1.000
    N2157    N        0.34167    0.48761    0.93348    1.000
    N2158    N        0.35975    0.43034    0.89591    1.000
    Si2159   Si       0.36543    0.44907    0.93405    1.000
    N2160    N        0.46394    0.48444    0.88488    1.000
    Si2161   Si       0.43302    0.46058    0.90218    1.000
    Si2162   Si       0.48363    0.40477    0.88543    1.000
    N2163    N        0.44755    0.41759    0.90718    1.000
    N2164    N        0.40677    0.46835    0.93525    1.000
    N2165    N        0.29890    0.31266    0.95288    1.000
    Si2166   Si       0.26040    0.28554    0.95773    1.000
    Si2167   Si       0.34182    0.30723    0.95804    1.000
    N2168    N        0.35212    0.27026    0.97804    1.000
    N2169    N        0.35731    0.34394    0.98197    1.000
    Si2170   Si       0.36077    0.37963    0.95784    1.000
    N2171    N        0.26242    0.37497    0.94120    1.000
    N2172    N        0.46106    0.36003    0.94378    1.000
    N2173    N        0.41712    0.27442    0.94333    1.000
    N2174    N        0.29343    0.41997    0.98431    1.000
    Si2175   Si       0.28971    0.40768    0.94349    1.000
    Si2176   Si       0.31718    0.50376    0.96365    1.000
    N2177    N        0.27471    0.50486    0.95094    1.000
    N2178    N        0.36031    0.41995    0.97322    1.000
    Si2179   Si       0.25372    0.47006    0.93472    1.000
    Si2180   Si       0.41739    0.48528    0.97253    1.000
    N2181    N        0.42747    0.41281    0.97871    1.000
    N2182    N        0.46009    0.47698    0.97549    1.000
    Si2183   Si       0.43275    0.39438    0.94026    1.000
    N2184    N        0.31486    0.58675    0.02648    1.000
    N2185    N        0.26029    0.62139    0.02953    1.000
    Si2186   Si       0.33829    0.55716    0.04822    1.000
    Si2187   Si       0.30306    0.62774    0.03725    1.000
    N2188    N        0.25044    0.51525    0.01254    1.000
    N2189    N        0.30989    0.52218    0.05742    1.000
    N2190    N        0.36890    0.53536    0.02507    1.000
    Si2191   Si       0.44129    0.61661    0.02580    1.000
    N2192    N        0.41643    0.58115    0.03284    1.000
    N2193    N        0.48134    0.60257    0.02538    1.000
    Si2194   Si       0.39955    0.55606    0.00153    1.000
    N2195    N        0.31545    0.71133    0.03686    1.000
    Si2196   Si       0.34108    0.68525    0.01021    1.000
    Si2197   Si       0.29409    0.72895    0.00307    1.000
    N2198    N        0.31328    0.65099    0.00116    1.000
    N2199    N        0.36158    0.66060    0.04282    1.000
    Si2200   Si       0.39847    0.75044    0.03627    1.000
    Si2201   Si       0.40003    0.67478    0.03164    1.000
    N2202    N        0.43305    0.65316    0.04962    1.000
    N2203    N        0.45576    0.70360    0.01176    1.000
    Si2204   Si       0.45100    0.69632    0.05397    1.000
    N2205    N        0.40923    0.71262    0.05325    1.000
    N2206    N        0.24241    0.58145    0.08644    1.000
    N2207    N        0.36145    0.57113    0.08210    1.000
    Si2208   Si       0.40506    0.57167    0.07505    1.000
    N2209    N        0.42175    0.60130    0.09971    1.000
    N2210    N        0.41940    0.53384    0.09438    1.000
    Si2211   Si       0.46297    0.52694    0.09549    1.000
    N2212    N        0.48812    0.56178    0.08762    1.000
    N2213    N        0.31163    0.64145    0.07862    1.000
    Si2214   Si       0.33185    0.73577    0.06699    1.000
    N2215    N        0.35407    0.71025    0.09294    1.000
    Si2216   Si       0.34536    0.66842    0.08295    1.000
    N2217    N        0.23894    0.65863    0.08494    1.000
    N2218    N        0.41435    0.67534    0.10809    1.000
    N2219    N        0.47596    0.64448    0.10954    1.000
    N2220    N        0.47582    0.73219    0.07227    1.000
    Si2221   Si       0.43701    0.64266    0.09229    1.000
    N2222    N        0.32912    0.52632    0.12554    1.000
    N2223    N        0.32435    0.59182    0.13478    1.000
    Si2224   Si       0.35306    0.56331    0.12509    1.000
    Si2225   Si       0.31450    0.52086    0.16559    1.000
    Si2226   Si       0.31559    0.63192    0.12282    1.000
    N2227    N        0.38981    0.56465    0.14957    1.000
    Si2228   Si       0.42738    0.58913    0.14233    1.000
    N2229    N        0.47378    0.58839    0.14476    1.000
    Si2230   Si       0.38602    0.52739    0.17256    1.000
    N2231    N        0.42482    0.63350    0.15713    1.000
    Si2232   Si       0.24872    0.67292    0.12441    1.000
    N2233    N        0.28564    0.65525    0.14383    1.000
    N2234    N        0.35558    0.64952    0.12091    1.000
    N2235    N        0.25521    0.71465    0.11916    1.000
    Si2236   Si       0.38887    0.65927    0.14712    1.000
    N2237    N        0.38813    0.70183    0.15692    1.000
    Si2238   Si       0.47691    0.63416    0.15124    1.000
    N2239    N        0.40302    0.75511    0.11832    1.000
    Si2240   Si       0.39026    0.71263    0.11312    1.000
    N2241    N        0.34696    0.53238    0.19221    1.000
    N2242    N        0.25821    0.61320    0.18906    1.000
    Si2243   Si       0.27652    0.57754    0.20348    1.000
    N2244    N        0.31717    0.58832    0.21693    1.000
    Si2245   Si       0.34804    0.56092    0.22477    1.000
    Si2246   Si       0.34296    0.62495    0.21705    1.000
    N2247    N        0.27776    0.54386    0.17598    1.000
    N2248    N        0.43701    0.58701    0.19455    1.000
    N2249    N        0.40683    0.52722    0.21244    1.000
    Si2250   Si       0.40768    0.62342    0.19986    1.000
    Si2251   Si       0.47787    0.57524    0.18648    1.000
    N2252    N        0.37866    0.59249    0.21989    1.000
    Si2253   Si       0.41529    0.56586    0.22606    1.000
    N2254    N        0.48110    0.53345    0.19334    1.000
    N2255    N        0.24784    0.68414    0.20630    1.000
    N2256    N        0.30702    0.65279    0.21576    1.000
    Si2257   Si       0.27460    0.65304    0.18666    1.000
    Si2258   Si       0.26543    0.71972    0.22403    1.000
    N2259    N        0.28008    0.75043    0.19697    1.000
    N2260    N        0.44883    0.70934    0.19639    1.000
    N2261    N        0.37116    0.64154    0.18542    1.000
    Si2262   Si       0.46266    0.67552    0.21905    1.000
    N2263    N        0.42521    0.65206    0.22787    1.000
    Si2264   Si       0.40519    0.71497    0.19439    1.000
    N2265    N        0.48529    0.65314    0.19151    1.000
    Si2266   Si       0.46960    0.74897    0.19902    1.000
    N2267    N        0.25375    0.55870    0.23615    1.000
    Si2268   Si       0.34373    0.51479    0.28696    1.000
    N2269    N        0.35975    0.54739    0.26479    1.000
    Si2270   Si       0.24250    0.51552    0.23198    1.000
    N2271    N        0.42630    0.57885    0.26539    1.000
    Si2272   Si       0.38522    0.57514    0.28515    1.000
    Si2273   Si       0.31370    0.74915    0.26439    1.000
    Si2274   Si       0.31585    0.66938    0.25490    1.000
    N2275    N        0.35557    0.65242    0.25345    1.000
    N2276    N        0.29742    0.70948    0.25185    1.000
    N2277    N        0.41595    0.66554    0.29045    1.000
    Si2278   Si       0.39417    0.67050    0.25130    1.000
    N2279    N        0.48445    0.68095    0.25696    1.000
    N2280    N        0.38951    0.71022    0.23475    1.000
    Si2281   Si       0.38152    0.75450    0.23831    1.000
    Si2282   Si       0.32500    0.59543    0.32452    1.000
    N2283    N        0.28577    0.58737    0.30765    1.000
    Si2284   Si       0.27369    0.54571    0.31819    1.000
    Si2285   Si       0.26535    0.62807    0.30309    1.000
    N2286    N        0.30008    0.52020    0.29508    1.000
    N2287    N        0.35772    0.51215    0.32874    1.000
    Si2288   Si       0.31733    0.51569    0.34716    1.000
    N2289    N        0.36283    0.60609    0.30571    1.000
    N2290    N        0.40867    0.56070    0.32199    1.000
    N2291    N        0.46445    0.58790    0.32878    1.000
    Si2292   Si       0.44754    0.56098    0.29948    1.000
    N2293    N        0.46554    0.52178    0.29475    1.000
    N2294    N        0.40952    0.62644    0.34981    1.000
    Si2295   Si       0.39208    0.52849    0.34690    1.000
    N2296    N        0.24888    0.65219    0.33552    1.000
    Si2297   Si       0.31899    0.66644    0.32871    1.000
    N2298    N        0.34139    0.74090    0.29549    1.000
    Si2299   Si       0.25323    0.69530    0.34679    1.000
    N2300    N        0.29871    0.65334    0.29188    1.000
    N2301    N        0.36185    0.67509    0.32892    1.000
    N2302    N        0.46796    0.72115    0.30225    1.000
    Si2303   Si       0.44302    0.74909    0.32368    1.000
    N2304    N        0.40321    0.73273    0.32683    1.000
    N2305    N        0.46816    0.65393    0.32896    1.000
    Si2306   Si       0.45763    0.67948    0.29609    1.000
    Si2307   Si       0.38696    0.64230    0.31656    1.000
    Si2308   Si       0.27546    0.52450    0.39690    1.000
    Si2309   Si       0.34554    0.56095    0.38878    1.000
    N2310    N        0.32056    0.52246    0.39926    1.000
    N2311    N        0.32481    0.56074    0.35032    1.000
    Si2312   Si       0.31694    0.62980    0.39590    1.000
    N2313    N        0.31902    0.62795    0.35324    1.000
    N2314    N        0.27313    0.51822    0.35223    1.000
    N2315    N        0.38639    0.54938    0.38416    1.000
    N2316    N        0.44416    0.58172    0.39280    1.000
    Si2317   Si       0.42693    0.58645    0.35313    1.000
    N2318    N        0.27277    0.63209    0.40287    1.000
    N2319    N        0.29747    0.69267    0.35371    1.000
    Si2320   Si       0.32038    0.70387    0.39098    1.000
    N2321    N        0.35375    0.72700    0.37618    1.000
    Si2322   Si       0.23821    0.63429    0.37481    1.000
    Si2323   Si       0.38449    0.70607    0.35385    1.000
    Si2324   Si       0.44020    0.65558    0.36183    1.000
    N2325    N        0.46131    0.74976    0.36259    1.000
    N2326    N        0.41596    0.69069    0.37807    1.000
    Si2327   Si       0.44413    0.75380    0.40364    1.000
    N2328    N        0.46058    0.65068    0.39854    1.000
    N2329    N        0.34019    0.59681    0.41458    1.000
    N2330    N        0.36428    0.52058    0.45238    1.000
    Si2331   Si       0.36198    0.59623    0.45235    1.000
    N2332    N        0.24064    0.60982    0.46074    1.000
    N2333    N        0.24834    0.55576    0.41035    1.000
    Si2334   Si       0.47056    0.61037    0.41189    1.000
    N2335    N        0.40295    0.58264    0.44708    1.000
    N2336    N        0.46881    0.60764    0.45522    1.000
    N2337    N        0.43273    0.51972    0.43206    1.000
    Si2338   Si       0.41613    0.55664    0.41515    1.000
    N2339    N        0.29643    0.72413    0.42126    1.000
    Si2340   Si       0.33942    0.66618    0.45334    1.000
    Si2341   Si       0.26613    0.64379    0.44398    1.000
    N2342    N        0.24517    0.68388    0.44239    1.000
    Si2343   Si       0.25226    0.71838    0.41878    1.000
    N2344    N        0.33384    0.66666    0.41075    1.000
    Si2345   Si       0.44022    0.68292    0.41900    1.000
    N2346    N        0.42793    0.67267    0.46017    1.000
    N2347    N        0.46001    0.72076    0.42638    1.000
    Si2348   Si       0.26604    0.53816    0.50683    1.000
    Si2349   Si       0.33388    0.53441    0.48197    1.000
    N2350    N        0.34430    0.57510    0.48454    1.000
    N2351    N        0.29246    0.52943    0.47375    1.000
    Si2352   Si       0.34220    0.59809    0.52189    1.000
    Si2353   Si       0.45198    0.50953    0.47218    1.000
    N2354    N        0.45221    0.54664    0.49462    1.000
    N2355    N        0.42723    0.61781    0.50315    1.000
    Si2356   Si       0.43644    0.58265    0.47617    1.000
    N2357    N        0.29782    0.74774    0.49244    1.000
    Si2358   Si       0.29414    0.65634    0.51119    1.000
    Si2359   Si       0.33273    0.72327    0.50089    1.000
    N2360    N        0.25271    0.66338    0.51793    1.000
    N2361    N        0.31669    0.68897    0.52305    1.000
    N2362    N        0.35745    0.70234    0.47016    1.000
    N2363    N        0.30060    0.65264    0.46744    1.000
    N2364    N        0.48492    0.65757    0.50349    1.000
    N2365    N        0.36078    0.75486    0.51358    1.000
    Si2366   Si       0.45415    0.64220    0.47886    1.000
    N2367    N        0.42109    0.73951    0.48086    1.000
    Si2368   Si       0.40228    0.70202    0.48164    1.000
    N2369    N        0.40202    0.68192    0.51892    1.000
    N2370    N        0.36472    0.63679    0.47020    1.000
    Si2371   Si       0.39202    0.64318    0.50420    1.000
    Si2372   Si       0.46058    0.75443    0.46784    1.000
    Si2373   Si       0.27754    0.60143    0.55966    1.000
    N2374    N        0.34874    0.56421    0.55009    1.000
    N2375    N        0.25854    0.56843    0.53864    1.000
    Si2376   Si       0.35204    0.52028    0.55007    1.000
    N2377    N        0.25242    0.63202    0.57623    1.000
    Si2378   Si       0.24311    0.53690    0.56605    1.000
    N2379    N        0.30490    0.61845    0.52950    1.000
    N2380    N        0.32388    0.51030    0.58228    1.000
    N2381    N        0.42542    0.56488    0.55285    1.000
    Si2382   Si       0.43858    0.60441    0.54578    1.000
    Si2383   Si       0.42238    0.52645    0.57133    1.000
    N2384    N        0.37129    0.62473    0.53817    1.000
    Si2385   Si       0.47359    0.55077    0.53304    1.000
    N2386    N        0.47971    0.59469    0.53428    1.000
    N2387    N        0.46677    0.51974    0.56515    1.000
    N2388    N        0.42991    0.62815    0.58139    1.000
    Si2389   Si       0.24452    0.67297    0.56122    1.000
    Si2390   Si       0.26631    0.74695    0.57826    1.000
    N2391    N        0.24820    0.75466    0.53769    1.000
    N2392    N        0.26488    0.70375    0.58449    1.000
    N2393    N        0.39938    0.74375    0.57064    1.000
    Si2394   Si       0.40544    0.70050    0.55836    1.000
    N2395    N        0.44901    0.70507    0.56672    1.000
    Si2396   Si       0.38616    0.63633    0.57918    1.000
    N2397    N        0.29673    0.58199    0.59310    1.000
    Si2398   Si       0.28507    0.57913    0.63464    1.000
    Si2399   Si       0.34086    0.57770    0.59044    1.000
    Si2400   Si       0.33076    0.51537    0.62745    1.000
    N2401    N        0.25659    0.51723    0.60261    1.000
    N2402    N        0.35641    0.61557    0.60436    1.000
    N2403    N        0.35922    0.54926    0.61637    1.000
    N2404    N        0.42661    0.52104    0.61481    1.000
    Si2405   Si       0.47193    0.51448    0.61156    1.000
    N2406    N        0.47907    0.55749    0.63275    1.000
    Si2407   Si       0.39264    0.53376    0.63986    1.000
    Si2408   Si       0.33156    0.63443    0.63750    1.000
    Si2409   Si       0.28011    0.70032    0.62522    1.000
    N2410    N        0.31122    0.67011    0.61870    1.000
    Si2411   Si       0.35362    0.68600    0.62136    1.000
    N2412    N        0.28909    0.74297    0.63015    1.000
    N2413    N        0.35320    0.72717    0.62669    1.000
    N2414    N        0.48678    0.74317    0.60046    1.000
    N2415    N        0.46408    0.67853    0.62719    1.000
    N2416    N        0.38110    0.67916    0.58796    1.000
    Si2417   Si       0.48047    0.70228    0.59600    1.000
    Si2418   Si       0.45759    0.63863    0.61155    1.000
    N2419    N        0.42854    0.73700    0.62532    1.000
    Si2420   Si       0.38903    0.74892    0.61422    1.000
    Si2421   Si       0.44458    0.74718    0.58553    1.000
    N2422    N        0.31686    0.60152    0.65769    1.000
    Si2423   Si       0.31977    0.56703    0.68365    1.000
    N2424    N        0.24783    0.58403    0.65385    1.000
    N2425    N        0.30342    0.54190    0.65055    1.000
    Si2426   Si       0.25649    0.59581    0.69591    1.000
    Si2427   Si       0.26863    0.50954    0.65062    1.000
    N2428    N        0.46644    0.53765    0.69207    1.000
    N2429    N        0.41183    0.56396    0.66416    1.000
    Si2430   Si       0.45434    0.57187    0.66414    1.000
    N2431    N        0.44897    0.61611    0.64966    1.000
    Si2432   Si       0.39562    0.58821    0.69590    1.000
    N2433    N        0.40302    0.63096    0.69868    1.000
    Si2434   Si       0.44446    0.63347    0.68853    1.000
    N2435    N        0.26798    0.63725    0.69069    1.000
    N2436    N        0.25208    0.69573    0.66063    1.000
    N2437    N        0.32387    0.75736    0.68984    1.000
    Si2438   Si       0.26019    0.71806    0.69740    1.000
    Si2439   Si       0.32726    0.75312    0.64695    1.000
    N2440    N        0.35870    0.66040    0.65685    1.000
    Si2441   Si       0.36963    0.65838    0.69867    1.000
    N2442    N        0.46384    0.67034    0.69508    1.000
    Si2443   Si       0.46666    0.70334    0.66265    1.000
    N2444    N        0.45031    0.73923    0.68328    1.000
    Si2445   Si       0.26572    0.52738    0.72352    1.000
    N2446    N        0.28364    0.56471    0.71052    1.000
    N2447    N        0.35623    0.56800    0.70357    1.000
    Si2448   Si       0.37608    0.54694    0.73645    1.000
    N2449    N        0.41206    0.57356    0.73612    1.000
    Si2450   Si       0.45786    0.55844    0.73158    1.000
    N2451    N        0.44955    0.52069    0.75673    1.000
    N2452    N        0.46551    0.59826    0.70448    1.000
    Si2453   Si       0.29434    0.65549    0.71981    1.000
    N2454    N        0.33678    0.64708    0.72527    1.000
    N2455    N        0.34209    0.73545    0.75172    1.000
    Si2456   Si       0.33401    0.72285    0.71293    1.000
    N2457    N        0.29751    0.69964    0.70882    1.000
    N2458    N        0.26745    0.65012    0.75555    1.000
    N2459    N        0.37028    0.70124    0.70772    1.000
    N2460    N        0.41439    0.74378    0.74902    1.000
    Si2461   Si       0.38279    0.71642    0.74793    1.000
    Si2462   Si       0.34321    0.58066    0.79697    1.000
    N2463    N        0.30461    0.59678    0.79487    1.000
    Si2464   Si       0.27902    0.56408    0.80935    1.000
    N2465    N        0.30417    0.52955    0.81083    1.000
    N2466    N        0.34823    0.54865    0.76900    1.000
    Si2467   Si       0.32388    0.51550    0.77449    1.000
    N2468    N        0.24504    0.56711    0.78702    1.000
    N2469    N        0.37011    0.61084    0.77550    1.000
    N2470    N        0.41862    0.57262    0.80673    1.000
    Si2471   Si       0.44897    0.54433    0.79353    1.000
    Si2472   Si       0.41330    0.59867    0.77311    1.000
    N2473    N        0.47579    0.57348    0.77116    1.000
    Si2474   Si       0.48485    0.61819    0.79242    1.000
    N2475    N        0.44498    0.62958    0.77563    1.000
    N2476    N        0.46334    0.51534    0.82234    1.000
    Si2477   Si       0.28852    0.63624    0.79181    1.000
    N2478    N        0.32244    0.66295    0.79099    1.000
    N2479    N        0.29610    0.72624    0.80267    1.000
    Si2480   Si       0.35497    0.65005    0.76632    1.000
    Si2481   Si       0.31109    0.75521    0.77538    1.000
    N2482    N        0.45790    0.74833    0.82169    1.000
    N2483    N        0.38971    0.67801    0.76640    1.000
    Si2484   Si       0.43012    0.67015    0.78278    1.000
    Si2485   Si       0.44605    0.74397    0.77937    1.000
    N2486    N        0.45771    0.70116    0.77522    1.000
    N2487    N        0.36301    0.71698    0.82388    1.000
    N2488    N        0.27031    0.57554    0.85202    1.000
    Si2489   Si       0.25140    0.61296    0.85697    1.000
    Si2490   Si       0.25947    0.53739    0.86924    1.000
    N2491    N        0.35710    0.56835    0.83573    1.000
    N2492    N        0.24427    0.51353    0.83720    1.000
    Si2493   Si       0.36117    0.58460    0.87541    1.000
    Si2494   Si       0.39461    0.54631    0.83249    1.000
    N2495    N        0.41863    0.53698    0.86717    1.000
    N2496    N        0.47807    0.62575    0.83664    1.000
    N2497    N        0.40219    0.60284    0.87809    1.000
    Si2498   Si       0.32554    0.69537    0.81810    1.000
    N2499    N        0.25103    0.70671    0.85018    1.000
    N2500    N        0.31287    0.67773    0.85562    1.000
    Si2501   Si       0.26298    0.74080    0.82756    1.000
    N2502    N        0.25877    0.64409    0.82401    1.000
    Si2503   Si       0.27229    0.67004    0.85769    1.000
    Si2504   Si       0.39218    0.69746    0.84808    1.000
    Si2505   Si       0.46181    0.66444    0.84921    1.000
    N2506    N        0.42488    0.67729    0.82727    1.000
    N2507    N        0.40660    0.73428    0.86896    1.000
    N2508    N        0.37691    0.66975    0.87640    1.000
    N2509    N        0.35141    0.55403    0.90406    1.000
    Si2510   Si       0.33613    0.51380    0.89821    1.000
    N2511    N        0.33595    0.61702    0.88145    1.000
    N2512    N        0.29729    0.51819    0.88058    1.000
    N2513    N        0.47715    0.57981    0.88547    1.000
    Si2514   Si       0.47961    0.57388    0.92947    1.000
    N2515    N        0.43552    0.57850    0.92866    1.000
    Si2516   Si       0.43493    0.57268    0.88481    1.000
    Si2517   Si       0.23899    0.65224    0.91986    1.000
    N2518    N        0.26246    0.64017    0.88595    1.000
    N2519    N        0.29710    0.73766    0.91977    1.000
    Si2520   Si       0.33731    0.65928    0.88584    1.000
    N2521    N        0.32150    0.67089    0.92675    1.000
    N2522    N        0.23969    0.69576    0.91242    1.000
    Si2523   Si       0.32671    0.71181    0.93652    1.000
    Si2524   Si       0.37976    0.75162    0.89903    1.000
    Si2525   Si       0.40547    0.64332    0.89351    1.000
    N2526    N        0.36667    0.72699    0.92947    1.000
    N2527    N        0.44316    0.66466    0.88907    1.000
    Si2528   Si       0.46119    0.69632    0.91587    1.000
    N2529    N        0.39728    0.64088    0.93561    1.000
    N2530    N        0.47734    0.73576    0.91086    1.000
    N2531    N        0.32236    0.60545    0.95431    1.000
    N2532    N        0.32716    0.54487    0.96903    1.000
    Si2533   Si       0.25030    0.53248    0.97275    1.000
    N2534    N        0.26471    0.57290    0.97902    1.000
    Si2535   Si       0.30710    0.57865    0.98628    1.000
    Si2536   Si       0.34985    0.57320    0.94354    1.000
    Si2537   Si       0.24748    0.61551    0.98836    1.000
    N2538    N        0.38255    0.57946    0.97026    1.000
    Si2539   Si       0.41290    0.60461    0.95326    1.000
    Si2540   Si       0.46924    0.51938    0.98108    1.000
    N2541    N        0.42660    0.52657    0.98398    1.000
    N2542    N        0.43152    0.63079    0.98449    1.000
    N2543    N        0.48846    0.53428    0.94601    1.000
    N2544    N        0.26174    0.64222    0.95781    1.000
    N2545    N        0.33005    0.71947    0.97889    1.000
    Si2546   Si       0.30448    0.64574    0.95806    1.000
    N2547    N        0.25991    0.71981    0.97880    1.000
    Si2548   Si       0.25703    0.73048    0.93596    1.000
    N2549    N        0.38366    0.68477    0.99142    1.000
    Si2550   Si       0.44537    0.73117    0.98030    1.000
    Si2551   Si       0.37636    0.72418    0.97259    1.000
    N2552    N        0.40624    0.74902    0.99337    1.000
    Si2553   Si       0.41536    0.66616    0.96794    1.000
    N2554    N        0.43575    0.70214    0.94944    1.000
    Si2555   Si       0.29234    0.80897    0.02390    1.000
    N2556    N        0.25509    0.83171    0.02875    1.000
    N2557    N        0.28008    0.76731    0.01863    1.000
    N2558    N        0.35698    0.76575    0.04293    1.000
    Si2559   Si       0.35978    0.80869    0.05116    1.000
    Si2560   Si       0.23819    0.76291    0.03539    1.000
    N2561    N        0.37722    0.83673    0.02304    1.000
    Si2562   Si       0.39343    0.87720    0.01603    1.000
    N2563    N        0.48384    0.86428    0.03617    1.000
    Si2564   Si       0.31316    0.97285    0.01052    1.000
    N2565    N        0.28656    0.93931    0.02169    1.000
    N2566    N        0.34022    0.97729    0.04319    1.000
    Si2567   Si       0.24689    0.92861    0.00839    1.000
    N2568    N        0.35201    0.89012    0.00225    1.000
    N2569    N        0.28340    0.00004    0.99496    1.000
    N2570    N        0.38873    0.94641    0.00436    1.000
    N2571    N        0.41672    0.88583    0.05256    1.000
    Si2572   Si       0.45860    0.97438    0.04263    1.000
    N2573    N        0.44799    0.98778    0.00339    1.000
    Si2574   Si       0.38185    0.95837    0.04507    1.000
    N2575    N        0.47258    0.93224    0.03856    1.000
    Si2576   Si       0.30502    0.84755    0.08896    1.000
    N2577    N        0.26275    0.84346    0.09935    1.000
    N2578    N        0.24163    0.77380    0.07809    1.000
    N2579    N        0.31777    0.82223    0.05608    1.000
    N2580    N        0.30812    0.75847    0.09531    1.000
    Si2581   Si       0.26658    0.75332    0.10730    1.000
    Si2582   Si       0.24115    0.85475    0.06226    1.000
    N2583    N        0.37909    0.81617    0.09027    1.000
    Si2584   Si       0.46692    0.77357    0.06571    1.000
    Si2585   Si       0.41440    0.79127    0.09579    1.000
    N2586    N        0.45843    0.79598    0.10371    1.000
    N2587    N        0.42448    0.77866    0.05522    1.000
    N2588    N        0.31128    0.88760    0.07828    1.000
    Si2589   Si       0.34568    0.90490    0.09721    1.000
    Si2590   Si       0.28482    0.91838    0.06320    1.000
    N2591    N        0.28658    0.95443    0.08671    1.000
    Si2592   Si       0.31474    0.98598    0.07793    1.000
    N2593    N        0.24696    0.89763    0.05913    1.000
    N2594    N        0.37260    0.92805    0.07304    1.000
    N2595    N        0.45420    0.89818    0.10139    1.000
    Si2596   Si       0.41608    0.98357    0.10378    1.000
    N2597    N        0.41883    0.97495    0.06267    1.000
    Si2598   Si       0.40989    0.90702    0.09311    1.000
    Si2599   Si       0.45906    0.89357    0.05804    1.000
    N2600    N        0.27242    0.78194    0.14050    1.000
    N2601    N        0.32449    0.83221    0.12747    1.000
    Si2602   Si       0.31428    0.78594    0.12928    1.000
    N2603    N        0.34377    0.77050    0.15556    1.000
    Si2604   Si       0.31729    0.84885    0.16926    1.000
    N2605    N        0.24627    0.83707    0.17132    1.000
    Si2606   Si       0.38804    0.77258    0.15681    1.000
    Si2607   Si       0.37101    0.83875    0.12755    1.000
    N2608    N        0.40409    0.81317    0.14698    1.000
    N2609    N        0.46807    0.84788    0.14590    1.000
    Si2610   Si       0.44026    0.82562    0.16962    1.000
    N2611    N        0.33267    0.99457    0.11691    1.000
    N2612    N        0.27402    0.96719    0.15080    1.000
    Si2613   Si       0.31813    0.96424    0.14356    1.000
    N2614    N        0.33542    0.92655    0.13220    1.000
    Si2615   Si       0.25326    0.96865    0.11366    1.000
    Si2616   Si       0.45506    0.01035    0.16197    1.000
    Si2617   Si       0.42263    0.94179    0.16501    1.000
    Si2618   Si       0.47420    0.88953    0.13770    1.000
    N2619    N        0.45854    0.91790    0.16835    1.000
    N2620    N        0.41146    0.94624    0.12312    1.000
    Si2621   Si       0.36290    0.90117    0.15386    1.000
    N2622    N        0.45305    0.00200    0.11982    1.000
    N2623    N        0.37780    0.88128    0.11655    1.000
    N2624    N        0.30768    0.81131    0.19050    1.000
    Si2625   Si       0.26677    0.79427    0.18489    1.000
    Si2626   Si       0.32199    0.76965    0.19280    1.000
    N2627    N        0.24259    0.80228    0.22112    1.000
    N2628    N        0.29394    0.88339    0.17930    1.000
    N2629    N        0.35844    0.86167    0.17129    1.000
    N2630    N        0.42285    0.85268    0.19915    1.000
    Si2631   Si       0.38583    0.87296    0.20602    1.000
    N2632    N        0.45769    0.78763    0.18194    1.000
    N2633    N        0.39815    0.75871    0.19610    1.000
    N2634    N        0.48790    0.88034    0.21756    1.000
    Si2635   Si       0.26324    0.89816    0.20476    1.000
    N2636    N        0.32529    0.96810    0.18565    1.000
    Si2637   Si       0.35280    0.97024    0.21859    1.000
    Si2638   Si       0.27849    0.97139    0.19242    1.000
    N2639    N        0.27370    0.93749    0.21983    1.000
    N2640    N        0.25533    0.00793    0.20863    1.000
    N2641    N        0.43584    0.97850    0.18460    1.000
    Si2642   Si       0.47998    0.92257    0.20480    1.000
    Si2643   Si       0.43208    0.97906    0.22685    1.000
    N2644    N        0.39107    0.91435    0.18300    1.000
    Si2645   Si       0.33433    0.86706    0.26791    1.000
    Si2646   Si       0.25878    0.87257    0.27347    1.000
    N2647    N        0.27987    0.77439    0.27966    1.000
    N2648    N        0.32155    0.82845    0.28147    1.000
    N2649    N        0.33797    0.76119    0.23208    1.000
    N2650    N        0.24229    0.87218    0.23377    1.000
    Si2651   Si       0.24217    0.77884    0.25801    1.000
    N2652    N        0.25405    0.83262    0.29152    1.000
    N2653    N        0.37022    0.86748    0.24426    1.000
    N2654    N        0.45196    0.81977    0.25147    1.000
    N2655    N        0.39610    0.77650    0.27205    1.000
    Si2656   Si       0.42391    0.80912    0.28222    1.000
    Si2657   Si       0.39315    0.87856    0.28086    1.000
    Si2658   Si       0.45093    0.85979    0.23024    1.000
    N2659    N        0.47832    0.75456    0.24155    1.000
    N2660    N        0.29838    0.88760    0.25902    1.000
    N2661    N        0.33560    0.95195    0.25560    1.000
    Si2662   Si       0.29823    0.93051    0.25640    1.000
    N2663    N        0.43227    0.88483    0.25871    1.000
    N2664    N        0.45787    0.94520    0.23705    1.000
    Si2665   Si       0.37522    0.95289    0.27564    1.000
    N2666    N        0.39284    0.96126    0.23611    1.000
    Si2667   Si       0.44512    0.92240    0.27433    1.000
    Si2668   Si       0.29124    0.81011    0.30277    1.000
    N2669    N        0.29000    0.81428    0.34721    1.000
    Si2670   Si       0.37678    0.76042    0.30815    1.000
    N2671    N        0.37442    0.79165    0.34007    1.000
    N2672    N        0.44800    0.79147    0.31400    1.000
    N2673    N        0.40263    0.84079    0.30312    1.000
    N2674    N        0.48304    0.85240    0.32880    1.000
    Si2675   Si       0.38613    0.83414    0.34454    1.000
    Si2676   Si       0.48963    0.81251    0.31860    1.000
    N2677    N        0.24122    0.89595    0.30579    1.000
    N2678    N        0.35027    0.89039    0.29971    1.000
    Si2679   Si       0.25921    0.93096    0.32793    1.000
    Si2680   Si       0.26845    0.98759    0.29920    1.000
    N2681    N        0.26234    0.97577    0.34031    1.000
    Si2682   Si       0.33548    0.89601    0.33991    1.000
    N2683    N        0.29395    0.90830    0.34852    1.000
    N2684    N        0.27594    0.94654    0.28908    1.000
    N2685    N        0.40506    0.92512    0.29433    1.000
    Si2686   Si       0.40629    0.92417    0.33760    1.000
    Si2687   Si       0.39346    0.00046    0.33470    1.000
    N2688    N        0.41724    0.96454    0.34543    1.000
    N2689    N        0.37114    0.99008    0.29922    1.000
    N2690    N        0.47624    0.91988    0.30386    1.000
    N2691    N        0.47805    0.98503    0.30520    1.000
    Si2692   Si       0.47487    0.89240    0.33997    1.000
    Si2693   Si       0.45355    0.98807    0.34002    1.000
    N2694    N        0.33948    0.80008    0.39727    1.000
    Si2695   Si       0.31877    0.83194    0.37482    1.000
    N2696    N        0.30002    0.86202    0.39961    1.000
    Si2697   Si       0.25039    0.81694    0.36614    1.000
    N2698    N        0.34868    0.85530    0.35289    1.000
    N2699    N        0.24180    0.86096    0.36571    1.000
    Si2700   Si       0.36557    0.77063    0.37999    1.000
    N2701    N        0.40827    0.83262    0.38497    1.000
    Si2702   Si       0.42760    0.86982    0.39256    1.000
    N2703    N        0.40483    0.76670    0.39668    1.000
    N2704    N        0.25843    0.99876    0.40179    1.000
    Si2705   Si       0.27160    0.89068    0.38246    1.000
    Si2706   Si       0.37158    0.92147    0.40142    1.000
    N2707    N        0.36784    0.91717    0.35951    1.000
    N2708    N        0.46486    0.00281    0.37721    1.000
    N2709    N        0.43202    0.89161    0.35305    1.000
    Si2710   Si       0.33906    0.81211    0.43880    1.000
    N2711    N        0.35174    0.85292    0.44569    1.000
    N2712    N        0.30051    0.80313    0.45385    1.000
    Si2713   Si       0.31618    0.87609    0.43756    1.000
    Si2714   Si       0.29064    0.75672    0.45094    1.000
    N2715    N        0.24785    0.75752    0.43834    1.000
    N2716    N        0.28364    0.87073    0.46588    1.000
    N2717    N        0.42262    0.83926    0.45051    1.000
    Si2718   Si       0.39070    0.87096    0.45276    1.000
    Si2719   Si       0.40743    0.80607    0.42265    1.000
    Si2720   Si       0.46471    0.82900    0.44013    1.000
    N2721    N        0.45287    0.78602    0.43459    1.000
    N2722    N        0.37637    0.78938    0.45072    1.000
    N2723    N        0.46830    0.86350    0.41033    1.000
    Si2724   Si       0.33152    0.94425    0.45733    1.000
    Si2725   Si       0.26544    0.95977    0.42639    1.000
    N2726    N        0.29830    0.97002    0.45313    1.000
    Si2727   Si       0.24751    0.89323    0.44991    1.000
    N2728    N        0.33613    0.91318    0.42852    1.000
    N2729    N        0.26160    0.91865    0.41601    1.000
    N2730    N        0.40170    0.89342    0.41687    1.000
    N2731    N        0.37467    0.96371    0.40925    1.000
    N2732    N        0.43129    0.94735    0.46767    1.000
    Si2733   Si       0.38196    0.00426    0.41196    1.000
    Si2734   Si       0.27630    0.82767    0.48023    1.000
    N2735    N        0.28996    0.81726    0.52002    1.000
    Si2736   Si       0.28446    0.77491    0.52495    1.000
    N2737    N        0.47309    0.77966    0.50259    1.000
    Si2738   Si       0.39115    0.77114    0.48642    1.000
    N2739    N        0.40868    0.79584    0.51857    1.000
    Si2740   Si       0.28228    0.89900    0.50178    1.000
    N2741    N        0.31774    0.92120    0.49508    1.000
    N2742    N        0.26246    0.97910    0.51353    1.000
    Si2743   Si       0.28559    0.99891    0.48297    1.000
    N2744    N        0.24249    0.91155    0.49043    1.000
    Si2745   Si       0.34217    0.94907    0.52140    1.000
    Si2746   Si       0.36063    0.00740    0.47989    1.000
    N2747    N        0.36412    0.96359    0.48290    1.000
    Si2748   Si       0.40000    0.93922    0.49235    1.000
    Si2749   Si       0.45794    0.96883    0.49368    1.000
    N2750    N        0.42926    0.96963    0.52638    1.000
    N2751    N        0.39370    0.89385    0.48856    1.000
    Si2752   Si       0.30889    0.84763    0.54608    1.000
    N2753    N        0.34985    0.86260    0.54424    1.000
    N2754    N        0.30313    0.76755    0.56573    1.000
    N2755    N        0.36493    0.80383    0.57226    1.000
    N2756    N        0.30163    0.83446    0.58580    1.000
    Si2757   Si       0.37628    0.84478    0.57448    1.000
    Si2758   Si       0.38225    0.77478    0.54672    1.000
    Si2759   Si       0.44949    0.87243    0.56549    1.000
    N2760    N        0.40823    0.87037    0.55847    1.000
    N2761    N        0.45000    0.79105    0.57228    1.000
    N2762    N        0.46529    0.84316    0.53354    1.000
    Si2763   Si       0.44894    0.80408    0.52990    1.000
    N2764    N        0.28555    0.88530    0.54064    1.000
    Si2765   Si       0.27686    0.97722    0.55345    1.000
    N2766    N        0.31764    0.96316    0.55378    1.000
    N2767    N        0.25680    0.94278    0.57098    1.000
    Si2768   Si       0.27748    0.90500    0.58058    1.000
    N2769    N        0.47830    0.90080    0.55006    1.000
    Si2770   Si       0.38098    0.88762    0.52940    1.000
    N2771    N        0.38616    0.00256    0.55718    1.000
    Si2772   Si       0.40107    0.95886    0.56072    1.000
    N2773    N        0.37909    0.93143    0.53555    1.000
    Si2774   Si       0.28211    0.84774    0.62235    1.000
    N2775    N        0.33146    0.79369    0.63202    1.000
    N2776    N        0.25465    0.87713    0.60495    1.000
    N2777    N        0.25709    0.81490    0.64056    1.000
    Si2778   Si       0.32412    0.79728    0.58938    1.000
    Si2779   Si       0.25784    0.77168    0.64054    1.000
    N2780    N        0.37886    0.84968    0.61835    1.000
    N2781    N        0.46806    0.86047    0.60256    1.000
    Si2782   Si       0.47285    0.81625    0.60053    1.000
    N2783    N        0.45802    0.80422    0.63931    1.000
    Si2784   Si       0.39787    0.87664    0.64560    1.000
    Si2785   Si       0.36776    0.81611    0.64310    1.000
    N2786    N        0.39454    0.78359    0.64010    1.000
    N2787    N        0.30816    0.97888    0.62044    1.000
    Si2788   Si       0.33131    0.95218    0.59383    1.000
    N2789    N        0.31314    0.91467    0.60530    1.000
    Si2790   Si       0.47022    0.89555    0.62975    1.000
    N2791    N        0.48936    0.93620    0.62368    1.000
    N2792    N        0.43302    0.96741    0.59433    1.000
    Si2793   Si       0.47435    0.97495    0.60691    1.000
    Si2794   Si       0.40663    0.94570    0.62225    1.000
    N2795    N        0.42802    0.90588    0.63017    1.000
    N2796    N        0.37296    0.94585    0.59555    1.000
    Si2797   Si       0.32297    0.84943    0.69037    1.000
    N2798    N        0.30921    0.86531    0.65283    1.000
    N2799    N        0.36098    0.83037    0.68291    1.000
    N2800    N        0.25511    0.76061    0.68285    1.000
    Si2801   Si       0.45604    0.82442    0.67943    1.000
    N2802    N        0.42245    0.85632    0.67588    1.000
    Si2803   Si       0.43435    0.77024    0.65388    1.000
    N2804    N        0.42505    0.79805    0.70136    1.000
    N2805    N        0.29370    0.00414    0.68726    1.000
    N2806    N        0.24717    0.96957    0.66429    1.000
    Si2807   Si       0.29204    0.96905    0.65929    1.000
    N2808    N        0.30759    0.93225    0.67620    1.000
    Si2809   Si       0.32604    0.90379    0.64732    1.000
    N2810    N        0.42133    0.92495    0.70177    1.000
    N2811    N        0.39364    0.96604    0.65855    1.000
    Si2812   Si       0.40382    0.00559    0.67799    1.000
    N2813    N        0.36831    0.90334    0.65872    1.000
    Si2814   Si       0.38166    0.93473    0.68705    1.000
    Si2815   Si       0.44500    0.88869    0.69858    1.000
    N2816    N        0.44523    0.99649    0.68991    1.000
    N2817    N        0.48026    0.89080    0.67193    1.000
    Si2818   Si       0.29092    0.82009    0.74872    1.000
    N2819    N        0.28358    0.77392    0.74772    1.000
    N2820    N        0.29635    0.81951    0.70660    1.000
    Si2821   Si       0.35106    0.87023    0.75727    1.000
    Si2822   Si       0.28948    0.77729    0.70424    1.000
    Si2823   Si       0.24130    0.75986    0.75580    1.000
    N2824    N        0.32952    0.88152    0.71954    1.000
    N2825    N        0.25324    0.84116    0.75671    1.000
    N2826    N        0.38917    0.85588    0.74078    1.000
    N2827    N        0.45748    0.86594    0.73427    1.000
    N2828    N        0.46853    0.77187    0.75133    1.000
    Si2829   Si       0.44043    0.76176    0.71929    1.000
    Si2830   Si       0.39588    0.83089    0.70742    1.000
    Si2831   Si       0.24762    0.93987    0.75282    1.000
    N2832    N        0.24792    0.98150    0.74254    1.000
    N2833    N        0.29186    0.93124    0.74944    1.000
    Si2834   Si       0.31893    0.92355    0.71675    1.000
    N2835    N        0.35699    0.94756    0.71970    1.000
    Si2836   Si       0.25241    0.99461    0.70004    1.000
    Si2837   Si       0.37671    0.98215    0.73889    1.000
    Si2838   Si       0.44314    0.95784    0.71835    1.000
    N2839    N        0.41861    0.97609    0.74821    1.000
    N2840    N        0.47984    0.93306    0.72389    1.000
    N2841    N        0.33104    0.78120    0.80420    1.000
    Si2842   Si       0.25829    0.86196    0.79755    1.000
    N2843    N        0.32385    0.83795    0.76903    1.000
    Si2844   Si       0.32090    0.82220    0.81002    1.000
    N2845    N        0.42084    0.83194    0.79715    1.000
    Si2846   Si       0.42464    0.86349    0.76446    1.000
    N2847    N        0.35098    0.90506    0.78319    1.000
    Si2848   Si       0.31235    0.92360    0.78842    1.000
    N2849    N        0.28027    0.89782    0.80470    1.000
    N2850    N        0.31806    0.95944    0.81083    1.000
    N2851    N        0.24263    0.99719    0.81287    1.000
    Si2852   Si       0.35974    0.97885    0.81325    1.000
    N2853    N        0.35893    0.99790    0.77557    1.000
    Si2854   Si       0.44093    0.00597    0.77368    1.000
    Si2855   Si       0.45779    0.90871    0.81423    1.000
    N2856    N        0.39421    0.95524    0.81740    1.000
    Si2857   Si       0.38425    0.91420    0.80891    1.000
    N2858    N        0.42137    0.89796    0.79119    1.000
    N2859    N        0.48130    0.99177    0.76479    1.000
    N2860    N        0.46395    0.94955    0.81565    1.000
    N2861    N        0.43977    0.00997    0.81864    1.000
    N2862    N        0.27419    0.77333    0.85674    1.000
    Si2863   Si       0.25424    0.81013    0.84948    1.000
    N2864    N        0.35382    0.84120    0.83178    1.000
    Si2865   Si       0.35120    0.87457    0.85832    1.000
    N2866    N        0.28022    0.83352    0.82319    1.000
    Si2867   Si       0.35660    0.76062    0.83305    1.000
    N2868    N        0.34231    0.75901    0.87450    1.000
    N2869    N        0.41339    0.84063    0.86733    1.000
    N2870    N        0.39496    0.78360    0.83269    1.000
    Si2871   Si       0.39551    0.82650    0.83065    1.000
    Si2872   Si       0.43012    0.76411    0.84907    1.000
    Si2873   Si       0.42065    0.88339    0.87198    1.000
    N2874    N        0.45010    0.78873    0.87872    1.000
    N2875    N        0.27244    0.95672    0.85510    1.000
    Si2876   Si       0.28657    0.98856    0.82583    1.000
    Si2877   Si       0.27836    0.91407    0.84719    1.000
    N2878    N        0.31293    0.89480    0.86526    1.000
    N2879    N        0.36417    0.00902    0.84361    1.000
    N2880    N        0.45909    0.88922    0.85416    1.000
    N2881    N        0.38675    0.89864    0.84937    1.000
    Si2882   Si       0.43066    0.97052    0.83552    1.000
    N2883    N        0.31676    0.80184    0.91977    1.000
    Si2884   Si       0.30269    0.76946    0.89184    1.000
    Si2885   Si       0.35504    0.82189    0.91634    1.000
    N2886    N        0.24834    0.82900    0.88818    1.000
    N2887    N        0.35648    0.86226    0.89842    1.000
    Si2888   Si       0.38111    0.87780    0.93559    1.000
    N2889    N        0.38748    0.79365    0.91169    1.000
    Si2890   Si       0.42617    0.81577    0.90112    1.000
    N2891    N        0.45141    0.83402    0.93080    1.000
    Si2892   Si       0.32034    0.89459    0.91102    1.000
    N2893    N        0.35124    0.99038    0.91011    1.000
    Si2894   Si       0.26933    0.95789    0.90071    1.000
    N2895    N        0.28751    0.92321    0.92032    1.000
    N2896    N        0.28461    0.98733    0.92814    1.000
    N2897    N        0.43492    0.96800    0.87842    1.000
    N2898    N        0.47675    0.93664    0.92439    1.000
    Si2899   Si       0.43409    0.93984    0.91239    1.000
    N2900    N        0.42023    0.89627    0.91452    1.000
    Si2901   Si       0.38878    0.00134    0.92933    1.000
    Si2902   Si       0.46445    0.99607    0.89533    1.000
    N2903    N        0.25261    0.82310    0.95626    1.000
    Si2904   Si       0.29502    0.82435    0.94845    1.000
    N2905    N        0.31153    0.82375    0.98906    1.000
    Si2906   Si       0.34705    0.84629    0.99276    1.000
    N2907    N        0.29710    0.86471    0.93329    1.000
    N2908    N        0.36525    0.84059    0.95398    1.000
    Si2909   Si       0.44312    0.87523    0.94874    1.000
    N2910    N        0.41006    0.87855    0.97512    1.000
    N2911    N        0.47994    0.75818    0.97751    1.000
    N2912    N        0.25221    0.89048    0.98642    1.000
    N2913    N        0.33627    0.96399    0.97466    1.000
    Si2914   Si       0.32345    0.99250    0.94262    1.000
    Si2915   Si       0.26615    0.89212    0.94511    1.000
    Si2916   Si       0.25524    0.99329    0.96046    1.000
    Si2917   Si       0.35828    0.92836    0.97823    1.000
    N2918    N        0.35328    0.91005    0.93738    1.000
    N2919    N        0.48033    0.88497    0.96591    1.000
    N2920    N        0.41360    0.96437    0.94164    1.000
    Si2921   Si       0.48207    0.00112    0.98016    1.000
    Si2922   Si       0.41264    0.97787    0.98315    1.000
    N2923    N        0.47813    0.99959    0.93760    1.000
    Si2924   Si       0.51789    0.10777    0.04168    1.000
    N2925    N        0.53628    0.06737    0.04681    1.000
    Si2926   Si       0.53681    0.04921    0.00880    1.000
    Si2927   Si       0.60690    0.02352    0.00695    1.000
    N2928    N        0.49832    0.10340    0.00233    1.000
    N2929    N        0.56359    0.01500    0.00445    1.000
    N2930    N        0.61988    0.00605    0.04460    1.000
    N2931    N        0.61796    0.06259    0.99977    1.000
    Si2932   Si       0.63643    0.08791    0.03277    1.000
    N2933    N        0.67797    0.07225    0.02314    1.000
    N2934    N        0.63256    0.12713    0.01602    1.000
    N2935    N        0.54379    0.14301    0.04154    1.000
    Si2936   Si       0.55175    0.17183    0.01142    1.000
    N2937    N        0.52467    0.20674    0.01678    1.000
    N2938    N        0.59367    0.18383    0.01018    1.000
    N2939    N        0.58836    0.25227    0.02327    1.000
    Si2940   Si       0.50565    0.21741    0.05492    1.000
    Si2941   Si       0.61087    0.22237    0.00034    1.000
    N2942    N        0.64832    0.23858    0.02024    1.000
    Si2943   Si       0.72529    0.17369    0.03827    1.000
    N2944    N        0.72939    0.13530    0.01652    1.000
    Si2945   Si       0.63435    0.16869    0.02471    1.000
    N2946    N        0.68215    0.18019    0.03248    1.000
    Si2947   Si       0.54698    0.04792    0.08365    1.000
    N2948    N        0.50779    0.05100    0.10365    1.000
    Si2949   Si       0.50086    0.09470    0.10841    1.000
    N2950    N        0.53422    0.12322    0.10614    1.000
    N2951    N        0.60596    0.13342    0.10715    1.000
    N2952    N        0.57651    0.06714    0.10931    1.000
    Si2953   Si       0.68756    0.07015    0.06605    1.000
    N2954    N        0.72201    0.09442    0.07918    1.000
    N2955    N        0.70530    0.03572    0.08913    1.000
    N2956    N        0.64863    0.08563    0.07532    1.000
    Si2957   Si       0.64117    0.10756    0.11158    1.000
    Si2958   Si       0.60499    0.17549    0.09985    1.000
    Si2959   Si       0.53329    0.15857    0.08238    1.000
    N2960    N        0.53444    0.24781    0.07166    1.000
    N2961    N        0.56228    0.18848    0.09722    1.000
    N2962    N        0.49718    0.17954    0.07280    1.000
    Si2963   Si       0.55231    0.22869    0.10812    1.000
    Si2964   Si       0.66492    0.21664    0.05584    1.000
    N2965    N        0.63204    0.18643    0.06475    1.000
    Si2966   Si       0.72662    0.22586    0.10914    1.000
    N2967    N        0.70733    0.22892    0.06917    1.000
    N2968    N        0.64468    0.24782    0.08218    1.000
    Si2969   Si       0.59704    0.04593    0.14245    1.000
    N2970    N        0.56528    0.10373    0.16337    1.000
    Si2971   Si       0.57240    0.10830    0.11958    1.000
    Si2972   Si       0.52293    0.10889    0.17275    1.000
    N2973    N        0.63152    0.07891    0.14278    1.000
    Si2974   Si       0.70625    0.02799    0.13263    1.000
    N2975    N        0.70115    0.06952    0.14646    1.000
    Si2976   Si       0.71474    0.10760    0.12639    1.000
    N2977    N        0.67660    0.12839    0.12546    1.000
    N2978    N        0.58769    0.24988    0.12135    1.000
    N2979    N        0.52339    0.23778    0.14060    1.000
    Si2980   Si       0.63063    0.23742    0.12156    1.000
    N2981    N        0.62631    0.19465    0.13342    1.000
    N2982    N        0.64911    0.25573    0.15612    1.000
    N2983    N        0.70568    0.19085    0.12283    1.000
    Si2984   Si       0.69160    0.16129    0.14924    1.000
    N2985    N        0.72665    0.13753    0.16069    1.000
    N2986    N        0.51787    0.07794    0.20465    1.000
    Si2987   Si       0.53304    0.03742    0.19265    1.000
    Si2988   Si       0.58661    0.11904    0.19964    1.000
    N2989    N        0.57644    0.03256    0.17831    1.000
    N2990    N        0.61351    0.09914    0.22644    1.000
    N2991    N        0.49532    0.02842    0.17110    1.000
    Si2992   Si       0.66464    0.07739    0.17076    1.000
    N2993    N        0.64795    0.04701    0.19776    1.000
    N2994    N        0.67666    0.10701    0.19994    1.000
    Si2995   Si       0.71856    0.11748    0.19940    1.000
    Si2996   Si       0.64279    0.13041    0.21723    1.000
    N2997    N        0.69123    0.01217    0.22918    1.000
    N2998    N        0.55395    0.13396    0.22734    1.000
    N2999    N        0.50699    0.14800    0.17886    1.000
    N3000    N        0.55000    0.20213    0.20143    1.000
    Si3001   Si       0.52905    0.23322    0.18311    1.000
    Si3002   Si       0.52980    0.16706    0.21299    1.000
    Si3003   Si       0.58483    0.21201    0.22984    1.000
    N3004    N        0.72088    0.15209    0.22748    1.000
    N3005    N        0.67544    0.17731    0.18501    1.000
    N3006    N        0.61483    0.14936    0.18876    1.000
    Si3007   Si       0.63249    0.18663    0.17544    1.000
    N3008    N        0.61710    0.21708    0.20097    1.000
    Si3009   Si       0.62725    0.25790    0.19558    1.000
    Si3010   Si       0.68622    0.17960    0.22875    1.000
    Si3011   Si       0.53173    0.03962    0.26850    1.000
    N3012    N        0.53999    0.08250    0.26883    1.000
    Si3013   Si       0.56329    0.11882    0.26817    1.000
    N3014    N        0.60763    0.02517    0.24662    1.000
    Si3015   Si       0.49386    0.08222    0.24138    1.000
    N3016    N        0.48930    0.05067    0.28057    1.000
    N3017    N        0.52844    0.01702    0.23212    1.000
    Si3018   Si       0.59877    0.01091    0.28763    1.000
    N3019    N        0.72939    0.05873    0.27087    1.000
    N3020    N        0.66034    0.06200    0.26851    1.000
    Si3021   Si       0.69488    0.03608    0.26586    1.000
    Si3022   Si       0.63180    0.06095    0.23725    1.000
    N3023    N        0.57628    0.24912    0.25298    1.000
    N3024    N        0.58890    0.18390    0.26161    1.000
    Si3025   Si       0.49701    0.15455    0.27439    1.000
    N3026    N        0.49504    0.17680    0.23826    1.000
    N3027    N        0.65299    0.15884    0.24780    1.000
    Si3028   Si       0.69074    0.25671    0.23282    1.000
    N3029    N        0.69004    0.21744    0.24934    1.000
    Si3030   Si       0.62764    0.16847    0.28150    1.000
    N3031    N        0.52640    0.08185    0.33626    1.000
    Si3032   Si       0.54976    0.04570    0.33473    1.000
    N3033    N        0.55881    0.02525    0.29784    1.000
    Si3034   Si       0.50162    0.08808    0.30196    1.000
    N3035    N        0.59858    0.13015    0.29190    1.000
    Si3036   Si       0.61925    0.12667    0.32997    1.000
    Si3037   Si       0.65633    0.05969    0.31246    1.000
    N3038    N        0.69746    0.05876    0.32735    1.000
    N3039    N        0.63153    0.02176    0.31516    1.000
    N3040    N        0.63672    0.08916    0.33675    1.000
    Si3041   Si       0.72833    0.07976    0.30805    1.000
    N3042    N        0.71459    0.12092    0.30323    1.000
    N3043    N        0.58901    0.18800    0.32974    1.000
    Si3044   Si       0.49550    0.21338    0.31751    1.000
    N3045    N        0.53591    0.21482    0.30139    1.000
    Si3046   Si       0.56277    0.17859    0.29633    1.000
    Si3047   Si       0.55882    0.25100    0.29312    1.000
    N3048    N        0.59026    0.25946    0.32330    1.000
    N3049    N        0.53635    0.14611    0.29074    1.000
    Si3050   Si       0.68118    0.22190    0.29380    1.000
    Si3051   Si       0.61431    0.22358    0.32778    1.000
    N3052    N        0.70941    0.19151    0.30889    1.000
    N3053    N        0.65226    0.15115    0.31632    1.000
    N3054    N        0.64054    0.20977    0.29445    1.000
    Si3055   Si       0.69406    0.15307    0.32336    1.000
    Si3056   Si       0.52765    0.10668    0.37254    1.000
    N3057    N        0.58471    0.05366    0.36044    1.000
    N3058    N        0.53468    0.01695    0.36424    1.000
    Si3059   Si       0.57394    0.01590    0.38140    1.000
    Si3060   Si       0.50478    0.01278    0.39377    1.000
    Si3061   Si       0.62334    0.06722    0.37209    1.000
    N3062    N        0.65017    0.03420    0.38047    1.000
    N3063    N        0.62101    0.09179    0.40771    1.000
    N3064    N        0.49276    0.21287    0.36074    1.000
    N3065    N        0.60246    0.13943    0.37092    1.000
    Si3066   Si       0.51534    0.18350    0.38394    1.000
    N3067    N        0.53419    0.14932    0.36344    1.000
    Si3068   Si       0.57265    0.17021    0.36468    1.000
    N3069    N        0.55477    0.19854    0.39153    1.000
    N3070    N        0.63519    0.22881    0.36329    1.000
    Si3071   Si       0.62478    0.13719    0.40869    1.000
    N3072    N        0.70679    0.14592    0.36445    1.000
    Si3073   Si       0.63676    0.20910    0.40469    1.000
    N3074    N        0.65266    0.16894    0.39987    1.000
    Si3075   Si       0.69501    0.16906    0.39840    1.000
    N3076    N        0.71395    0.20830    0.39708    1.000
    Si3077   Si       0.51051    0.08065    0.43165    1.000
    N3078    N        0.58308    0.03076    0.42039    1.000
    Si3079   Si       0.58348    0.07381    0.42163    1.000
    N3080    N        0.50121    0.11413    0.45947    1.000
    Si3081   Si       0.50152    0.01879    0.45693    1.000
    Si3082   Si       0.60455    0.01467    0.45419    1.000
    N3083    N        0.52836    0.05209    0.46200    1.000
    N3084    N        0.58756    0.08136    0.46566    1.000
    N3085    N        0.54775    0.09117    0.40763    1.000
    N3086    N        0.70575    0.01082    0.42739    1.000
    Si3087   Si       0.67148    0.03812    0.41884    1.000
    N3088    N        0.64285    0.03533    0.45355    1.000
    N3089    N        0.70363    0.07298    0.42921    1.000
    Si3090   Si       0.72332    0.04345    0.45370    1.000
    Si3091   Si       0.72883    0.11077    0.42902    1.000
    N3092    N        0.49095    0.17508    0.41754    1.000
    Si3093   Si       0.49208    0.21126    0.44354    1.000
    N3094    N        0.53313    0.20440    0.45562    1.000
    N3095    N        0.60436    0.21518    0.43786    1.000
    Si3096   Si       0.56242    0.22082    0.42867    1.000
    N3097    N        0.60435    0.14529    0.44547    1.000
    Si3098   Si       0.61104    0.18320    0.46865    1.000
    N3099    N        0.70544    0.14631    0.43433    1.000
    Si3100   Si       0.70090    0.24731    0.41502    1.000
    Si3101   Si       0.62822    0.24846    0.45321    1.000
    N3102    N        0.66001    0.23756    0.42651    1.000
    Si3103   Si       0.56023    0.05597    0.48963    1.000
    N3104    N        0.58337    0.02028    0.49331    1.000
    Si3105   Si       0.51776    0.11229    0.50030    1.000
    N3106    N        0.60697    0.12932    0.51477    1.000
    N3107    N        0.54116    0.08137    0.51998    1.000
    Si3108   Si       0.61365    0.11417    0.47408    1.000
    Si3109   Si       0.71665    0.01769    0.51810    1.000
    N3110    N        0.70078    0.04794    0.48988    1.000
    Si3111   Si       0.66023    0.06304    0.48217    1.000
    N3112    N        0.65654    0.10588    0.46950    1.000
    N3113    N        0.64085    0.06398    0.52131    1.000
    Si3114   Si       0.53884    0.18869    0.49525    1.000
    N3115    N        0.53741    0.14880    0.51175    1.000
    N3116    N        0.58259    0.19204    0.50426    1.000
    N3117    N        0.51231    0.21260    0.51493    1.000
    Si3118   Si       0.59795    0.23228    0.52146    1.000
    Si3119   Si       0.52577    0.25503    0.51349    1.000
    N3120    N        0.70527    0.20941    0.51194    1.000
    N3121    N        0.70248    0.13315    0.50884    1.000
    N3122    N        0.65432    0.17861    0.47536    1.000
    Si3123   Si       0.66447    0.20404    0.50793    1.000
    N3124    N        0.63401    0.23745    0.49576    1.000
    Si3125   Si       0.68008    0.14319    0.47040    1.000
    N3126    N        0.59088    0.08429    0.56416    1.000
    Si3127   Si       0.54736    0.08121    0.56195    1.000
    N3128    N        0.52712    0.04566    0.57958    1.000
    Si3129   Si       0.62353    0.09927    0.53939    1.000
    Si3130   Si       0.65137    0.04152    0.55657    1.000
    N3131    N        0.65469    0.11792    0.56343    1.000
    N3132    N        0.69193    0.02276    0.55386    1.000
    Si3133   Si       0.73724    0.10701    0.57574    1.000
    N3134    N        0.58855    0.15949    0.57144    1.000
    N3135    N        0.60708    0.22713    0.56083    1.000
    Si3136   Si       0.57788    0.15458    0.53070    1.000
    N3137    N        0.65438    0.18086    0.54449    1.000
    Si3138   Si       0.62308    0.18710    0.57387    1.000
    N3139    N        0.71590    0.14448    0.56939    1.000
    N3140    N        0.72993    0.21736    0.57887    1.000
    Si3141   Si       0.67988    0.14660    0.54532    1.000
    Si3142   Si       0.73112    0.23317    0.53791    1.000
    N3143    N        0.59765    0.11335    0.62636    1.000
    Si3144   Si       0.60372    0.07355    0.60488    1.000
    N3145    N        0.58171    0.04587    0.62701    1.000
    Si3146   Si       0.50027    0.04822    0.61517    1.000
    Si3147   Si       0.49491    0.11829    0.60329    1.000
    N3148    N        0.53604    0.11542    0.59019    1.000
    N3149    N        0.69231    0.01392    0.62325    1.000
    N3150    N        0.64427    0.06189    0.59406    1.000
    N3151    N        0.70822    0.08453    0.59921    1.000
    Si3152   Si       0.66714    0.09963    0.60158    1.000
    Si3153   Si       0.71055    0.05327    0.62964    1.000
    N3154    N        0.66652    0.12103    0.63909    1.000
    Si3155   Si       0.57037    0.13946    0.60727    1.000
    N3156    N        0.57836    0.22758    0.61944    1.000
    Si3157   Si       0.53622    0.21232    0.62558    1.000
    N3158    N        0.55085    0.17053    0.63394    1.000
    N3159    N        0.51094    0.21663    0.59166    1.000
    N3160    N        0.69006    0.24973    0.63290    1.000
    Si3161   Si       0.61815    0.22678    0.63398    1.000
    N3162    N        0.63790    0.19140    0.61432    1.000
    Si3163   Si       0.72803    0.24611    0.61441    1.000
    Si3164   Si       0.65979    0.16511    0.64178    1.000
    Si3165   Si       0.54220    0.03593    0.67910    1.000
    N3166    N        0.51760    0.06127    0.65407    1.000
    Si3167   Si       0.60523    0.11934    0.67069    1.000
    N3168    N        0.50883    0.01691    0.69879    1.000
    N3169    N        0.48922    0.12704    0.64587    1.000
    N3170    N        0.56763    0.13249    0.68901    1.000
    Si3171   Si       0.67762    0.03429    0.69828    1.000
    N3172    N        0.69085    0.06503    0.66812    1.000
    Si3173   Si       0.67289    0.10278    0.67986    1.000
    N3174    N        0.63177    0.09193    0.69498    1.000
    N3175    N        0.64779    0.00973    0.68136    1.000
    Si3176   Si       0.51714    0.22534    0.69585    1.000
    Si3177   Si       0.55787    0.17268    0.67741    1.000
    N3178    N        0.52633    0.24401    0.65802    1.000
    N3179    N        0.51742    0.18288    0.68809    1.000
    N3180    N        0.62477    0.15842    0.67065    1.000
    Si3181   Si       0.73501    0.18937    0.65773    1.000
    N3182    N        0.69287    0.18809    0.66218    1.000
    N3183    N        0.63495    0.22700    0.67212    1.000
    Si3184   Si       0.67980    0.22977    0.67140    1.000
    Si3185   Si       0.62229    0.19375    0.69697    1.000
    Si3186   Si       0.54535    0.10696    0.71472    1.000
    Si3187   Si       0.56518    0.06137    0.74942    1.000
    N3188    N        0.50413    0.11319    0.70930    1.000
    N3189    N        0.55853    0.10329    0.75612    1.000
    N3190    N        0.60644    0.05128    0.75769    1.000
    N3191    N        0.55594    0.06667    0.70699    1.000
    N3192    N        0.66906    0.05020    0.73679    1.000
    Si3193   Si       0.63602    0.07945    0.73664    1.000
    N3194    N        0.69227    0.12026    0.71375    1.000
    Si3195   Si       0.72728    0.10435    0.73500    1.000
    Si3196   Si       0.73416    0.01980    0.73736    1.000
    N3197    N        0.64297    0.11614    0.75976    1.000
    N3198    N        0.58102    0.19832    0.70664    1.000
    Si3199   Si       0.56694    0.21670    0.74472    1.000
    N3200    N        0.53611    0.24273    0.73280    1.000
    Si3201   Si       0.66826    0.14680    0.74155    1.000
    N3202    N        0.64767    0.18443    0.73022    1.000
    N3203    N        0.70014    0.24194    0.70635    1.000
    Si3204   Si       0.51549    0.04572    0.80514    1.000
    Si3205   Si       0.55701    0.11116    0.79798    1.000
    N3206    N        0.52970    0.04094    0.76496    1.000
    N3207    N        0.59357    0.13215    0.80766    1.000
    Si3208   Si       0.61705    0.01244    0.77219    1.000
    N3209    N        0.72472    0.10885    0.78130    1.000
    Si3210   Si       0.68117    0.04071    0.77789    1.000
    N3211    N        0.67727    0.06723    0.81177    1.000
    N3212    N        0.71839    0.01751    0.77716    1.000
    N3213    N        0.65454    0.01036    0.79560    1.000
    Si3214   Si       0.63590    0.13535    0.79817    1.000
    Si3215   Si       0.70093    0.10259    0.81700    1.000
    N3216    N        0.52054    0.13532    0.80347    1.000
    N3217    N        0.55677    0.18400    0.77293    1.000
    Si3218   Si       0.51435    0.17634    0.78818    1.000
    Si3219   Si       0.58692    0.17517    0.80464    1.000
    N3220    N        0.50727    0.21384    0.81210    1.000
    N3221    N        0.60260    0.23197    0.76725    1.000
    Si3222   Si       0.73733    0.15248    0.77742    1.000
    N3223    N        0.63242    0.17886    0.79655    1.000
    N3224    N        0.69369    0.16734    0.76988    1.000
    Si3225   Si       0.64004    0.20748    0.76566    1.000
    N3226    N        0.66982    0.23674    0.77684    1.000
    Si3227   Si       0.68536    0.17463    0.81237    1.000
    Si3228   Si       0.57407    0.06406    0.85512    1.000
    Si3229   Si       0.50581    0.10337    0.82974    1.000
    N3230    N        0.50746    0.11879    0.86849    1.000
    N3231    N        0.55727    0.02904    0.87455    1.000
    N3232    N        0.61045    0.05279    0.83734    1.000
    N3233    N        0.54354    0.07730    0.82400    1.000
    N3234    N        0.51376    0.00677    0.82278    1.000
    Si3235   Si       0.65009    0.04070    0.83116    1.000
    N3236    N        0.72797    0.10165    0.85088    1.000
    N3237    N        0.66314    0.02990    0.87249    1.000
    N3238    N        0.66945    0.13320    0.82520    1.000
    N3239    N        0.57353    0.19355    0.84092    1.000
    Si3240   Si       0.54443    0.22661    0.83674    1.000
    N3241    N        0.53007    0.24124    0.87595    1.000
    Si3242   Si       0.73240    0.14450    0.85929    1.000
    Si3243   Si       0.67214    0.24715    0.82161    1.000
    Si3244   Si       0.66125    0.13603    0.86920    1.000
    N3245    N        0.72643    0.16766    0.81938    1.000
    N3246    N        0.67896    0.20859    0.83954    1.000
    Si3247   Si       0.73478    0.25331    0.85776    1.000
    Si3248   Si       0.54362    0.11859    0.89530    1.000
    N3249    N        0.51812    0.10450    0.92780    1.000
    Si3250   Si       0.57419    0.01560    0.91043    1.000
    N3251    N        0.58007    0.09766    0.88389    1.000
    Si3252   Si       0.61616    0.11224    0.90445    1.000
    N3253    N        0.58902    0.04544    0.93805    1.000
    N3254    N        0.71636    0.05897    0.90549    1.000
    Si3255   Si       0.67445    0.05955    0.90232    1.000
    N3256    N        0.65499    0.09716    0.88860    1.000
    N3257    N        0.55623    0.15976    0.90595    1.000
    N3258    N        0.59312    0.21542    0.90199    1.000
    Si3259   Si       0.55462    0.23362    0.91218    1.000
    Si3260   Si       0.58851    0.17803    0.88128    1.000
    Si3261   Si       0.52863    0.17348    0.93728    1.000
    N3262    N        0.66101    0.20742    0.91581    1.000
    N3263    N        0.71959    0.23280    0.89410    1.000
    Si3264   Si       0.72624    0.24086    0.93656    1.000
    N3265    N        0.62390    0.15142    0.88401    1.000
    Si3266   Si       0.68885    0.20158    0.88259    1.000
    N3267    N        0.69644    0.15897    0.88023    1.000
    Si3268   Si       0.62701    0.23371    0.92360    1.000
    Si3269   Si       0.59380    0.07786    0.96561    1.000
    Si3270   Si       0.52627    0.11269    0.96973    1.000
    N3271    N        0.55475    0.08186    0.98488    1.000
    N3272    N        0.61161    0.11247    0.94746    1.000
    N3273    N        0.49529    0.03763    0.99640    1.000
    N3274    N        0.67736    0.10844    0.96947    1.000
    N3275    N        0.71130    0.04135    0.97283    1.000
    Si3276   Si       0.67435    0.06546    0.97739    1.000
    Si3277   Si       0.71681    0.12640    0.97601    1.000
    Si3278   Si       0.62732    0.02119    0.94287    1.000
    N3279    N        0.65703    0.05215    0.94071    1.000
    Si3280   Si       0.64128    0.13151    0.97347    1.000
    N3281    N        0.53952    0.15322    0.97408    1.000
    Si3282   Si       0.51521    0.23498    0.98243    1.000
    N3283    N        0.60791    0.24096    0.96244    1.000
    N3284    N        0.53170    0.21715    0.94627    1.000
    N3285    N        0.71371    0.16704    0.96056    1.000
    Si3286   Si       0.67941    0.19428    0.95390    1.000
    N3287    N        0.64815    0.17347    0.97494    1.000
    N3288    N        0.69365    0.23427    0.96500    1.000
    Si3289   Si       0.51297    0.30617    0.00928    1.000
    N3290    N        0.57442    0.35251    0.05180    1.000
    N3291    N        0.52825    0.30834    0.05016    1.000
    Si3292   Si       0.55814    0.27393    0.04361    1.000
    N3293    N        0.53650    0.27270    0.99489    1.000
    N3294    N        0.63507    0.30664    0.03041    1.000
    N3295    N        0.71145    0.27661    0.01220    1.000
    N3296    N        0.68646    0.37170    0.04689    1.000
    Si3297   Si       0.62369    0.26778    0.04768    1.000
    Si3298   Si       0.71842    0.26884    0.05446    1.000
    Si3299   Si       0.57484    0.38676    0.02699    1.000
    Si3300   Si       0.50492    0.49986    0.03818    1.000
    N3301    N        0.51781    0.46937    0.01001    1.000
    N3302    N        0.59657    0.46852    0.03577    1.000
    Si3303   Si       0.55816    0.45500    0.02087    1.000
    N3304    N        0.54647    0.41629    0.03868    1.000
    N3305    N        0.61441    0.40363    0.03942    1.000
    Si3306   Si       0.62090    0.49695    0.01579    1.000
    N3307    N        0.67472    0.42529    0.00928    1.000
    N3308    N        0.66318    0.49961    0.01891    1.000
    Si3309   Si       0.67844    0.46102    0.03484    1.000
    Si3310   Si       0.65433    0.39087    0.02488    1.000
    N3311    N        0.72050    0.46677    0.03583    1.000
    Si3312   Si       0.54142    0.34421    0.07683    1.000
    N3313    N        0.59174    0.29107    0.07044    1.000
    N3314    N        0.50742    0.37133    0.07565    1.000
    Si3315   Si       0.51476    0.28531    0.08982    1.000
    Si3316   Si       0.61138    0.32822    0.05718    1.000
    N3317    N        0.55623    0.37167    0.11470    1.000
    Si3318   Si       0.68245    0.34028    0.07544    1.000
    N3319    N        0.64085    0.34312    0.08729    1.000
    N3320    N        0.70316    0.30219    0.07603    1.000
    N3321    N        0.71075    0.35719    0.10725    1.000
    N3322    N        0.58200    0.44508    0.09566    1.000
    N3323    N        0.51074    0.44610    0.09685    1.000
    Si3324   Si       0.54697    0.47247    0.09800    1.000
    Si3325   Si       0.51006    0.41563    0.06273    1.000
    N3326    N        0.54522    0.49671    0.06172    1.000
    Si3327   Si       0.68822    0.45121    0.10078    1.000
    Si3328   Si       0.61185    0.44035    0.06435    1.000
    N3329    N        0.71614    0.42025    0.08577    1.000
    N3330    N        0.65657    0.45149    0.07123    1.000
    Si3331   Si       0.72412    0.39277    0.05190    1.000
    Si3332   Si       0.53555    0.34341    0.14042    1.000
    N3333    N        0.49179    0.35448    0.14115    1.000
    N3334    N        0.60604    0.32126    0.13594    1.000
    Si3335   Si       0.58201    0.29258    0.11243    1.000
    N3336    N        0.54136    0.30989    0.11262    1.000
    Si3337   Si       0.62744    0.35654    0.12798    1.000
    N3338    N        0.69006    0.31406    0.15076    1.000
    Si3339   Si       0.68927    0.27262    0.16052    1.000
    N3340    N        0.64924    0.36911    0.16541    1.000
    N3341    N        0.71545    0.26172    0.12763    1.000
    Si3342   Si       0.71807    0.30526    0.11749    1.000
    Si3343   Si       0.57526    0.41033    0.12312    1.000
    N3344    N        0.55960    0.49872    0.13314    1.000
    N3345    N        0.55336    0.41993    0.16014    1.000
    N3346    N        0.61682    0.39941    0.12283    1.000
    Si3347   Si       0.64310    0.41366    0.15424    1.000
    N3348    N        0.71403    0.38217    0.16655    1.000
    N3349    N        0.69901    0.48814    0.11879    1.000
    N3350    N        0.67919    0.42311    0.13397    1.000
    Si3351   Si       0.71188    0.39625    0.12460    1.000
    Si3352   Si       0.68560    0.48968    0.16027    1.000
    N3353    N        0.59206    0.28137    0.19340    1.000
    N3354    N        0.50961    0.36448    0.21423    1.000
    Si3355   Si       0.55301    0.35261    0.21916    1.000
    N3356    N        0.52784    0.26970    0.20729    1.000
    Si3357   Si       0.59568    0.31918    0.17798    1.000
    N3358    N        0.55807    0.34099    0.17784    1.000
    Si3359   Si       0.56414    0.28185    0.22555    1.000
    N3360    N        0.62266    0.33500    0.20760    1.000
    N3361    N        0.69219    0.33404    0.21347    1.000
    Si3362   Si       0.62199    0.37921    0.20768    1.000
    N3363    N        0.65332    0.27813    0.22390    1.000
    Si3364   Si       0.73401    0.34160    0.22187    1.000
    N3365    N        0.71026    0.25961    0.19572    1.000
    Si3366   Si       0.68677    0.34985    0.17338    1.000
    N3367    N        0.58193    0.38529    0.22507    1.000
    N3368    N        0.53183    0.42648    0.21936    1.000
    Si3369   Si       0.57303    0.42195    0.20039    1.000
    N3370    N        0.58037    0.46715    0.19975    1.000
    Si3371   Si       0.51602    0.43358    0.18063    1.000
    N3372    N        0.51241    0.47520    0.17715    1.000
    Si3373   Si       0.55300    0.49218    0.17512    1.000
    N3374    N        0.72333    0.48266    0.18320    1.000
    Si3375   Si       0.71759    0.47141    0.22337    1.000
    N3376    N        0.61887    0.41916    0.18962    1.000
    Si3377   Si       0.62431    0.46042    0.20341    1.000
    N3378    N        0.65283    0.46829    0.17205    1.000
    N3379    N        0.54173    0.37244    0.27342    1.000
    N3380    N        0.55858    0.31857    0.24480    1.000
    Si3381   Si       0.54703    0.32774    0.28750    1.000
    N3382    N        0.53215    0.28304    0.29099    1.000
    N3383    N        0.70772    0.28148    0.26389    1.000
    N3384    N        0.65559    0.32676    0.27802    1.000
    Si3385   Si       0.64834    0.36980    0.28243    1.000
    N3386    N        0.65282    0.38242    0.23877    1.000
    Si3387   Si       0.65375    0.32034    0.23360    1.000
    N3388    N        0.72862    0.38314    0.23764    1.000
    Si3389   Si       0.50438    0.38434    0.25309    1.000
    Si3390   Si       0.57518    0.39845    0.26770    1.000
    Si3391   Si       0.52721    0.44775    0.25737    1.000
    N3392    N        0.56707    0.44251    0.27254    1.000
    N3393    N        0.51204    0.48764    0.25072    1.000
    Si3394   Si       0.59414    0.47614    0.26991    1.000
    N3395    N        0.49588    0.42304    0.27165    1.000
    N3396    N        0.60927    0.38567    0.29105    1.000
    N3397    N        0.69473    0.50271    0.24305    1.000
    Si3398   Si       0.67000    0.47122    0.26155    1.000
    N3399    N        0.62958    0.46911    0.24661    1.000
    N3400    N        0.69143    0.44004    0.23721    1.000
    Si3401   Si       0.69031    0.39937    0.24810    1.000
    N3402    N        0.58556    0.32870    0.31187    1.000
    N3403    N        0.51502    0.33165    0.32103    1.000
    Si3404   Si       0.59517    0.36928    0.32765    1.000
    Si3405   Si       0.59425    0.29766    0.34146    1.000
    Si3406   Si       0.49301    0.28824    0.31586    1.000
    N3407    N        0.67288    0.26022    0.31487    1.000
    N3408    N        0.70201    0.31871    0.33028    1.000
    Si3409   Si       0.68186    0.29841    0.29692    1.000
    Si3410   Si       0.50744    0.47330    0.34403    1.000
    N3411    N        0.56376    0.38742    0.34664    1.000
    N3412    N        0.52600    0.50575    0.32039    1.000
    N3413    N        0.61144    0.49124    0.30856    1.000
    Si3414   Si       0.60987    0.47689    0.34966    1.000
    Si3415   Si       0.67738    0.49492    0.33854    1.000
    N3416    N        0.68143    0.39556    0.29137    1.000
    N3417    N        0.73211    0.43044    0.32127    1.000
    N3418    N        0.67483    0.46615    0.30553    1.000
    Si3419   Si       0.68915    0.42799    0.31870    1.000
    N3420    N        0.56506    0.30594    0.37138    1.000
    N3421    N        0.52019    0.36009    0.38407    1.000
    Si3422   Si       0.52396    0.32100    0.36225    1.000
    N3423    N        0.50152    0.28344    0.36088    1.000
    Si3424   Si       0.64258    0.33787    0.38440    1.000
    Si3425   Si       0.70731    0.31636    0.37507    1.000
    N3426    N        0.68498    0.35173    0.38940    1.000
    N3427    N        0.69218    0.27713    0.38535    1.000
    N3428    N        0.62725    0.37015    0.35781    1.000
    N3429    N        0.63297    0.30049    0.36128    1.000
    Si3430   Si       0.65864    0.26719    0.35749    1.000
    Si3431   Si       0.56788    0.42645    0.36945    1.000
    N3432    N        0.57382    0.49136    0.37054    1.000
    N3433    N        0.60769    0.43636    0.36135    1.000
    N3434    N        0.52606    0.43606    0.35513    1.000
    Si3435   Si       0.52158    0.38939    0.35359    1.000
    N3436    N        0.48568    0.49311    0.37838    1.000
    Si3437   Si       0.57161    0.47572    0.41377    1.000
    N3438    N        0.56190    0.43258    0.41146    1.000
    Si3439   Si       0.71931    0.49356    0.40539    1.000
    N3440    N        0.71353    0.48637    0.36273    1.000
    N3441    N        0.67699    0.41368    0.35902    1.000
    N3442    N        0.64452    0.49595    0.36694    1.000
    Si3443   Si       0.63797    0.40801    0.37660    1.000
    Si3444   Si       0.70389    0.39152    0.38731    1.000
    N3445    N        0.56057    0.32691    0.43550    1.000
    Si3446   Si       0.52481    0.34670    0.42443    1.000
    Si3447   Si       0.60132    0.32201    0.45152    1.000
    Si3448   Si       0.50760    0.27709    0.43898    1.000
    N3449    N        0.49410    0.31568    0.42311    1.000
    Si3450   Si       0.57238    0.29276    0.41136    1.000
    N3451    N        0.54710    0.26117    0.42418    1.000
    N3452    N        0.60944    0.28357    0.43447    1.000
    N3453    N        0.62398    0.34729    0.42273    1.000
    N3454    N        0.71775    0.25954    0.45629    1.000
    N3455    N        0.52149    0.38119    0.45408    1.000
    Si3456   Si       0.55055    0.41154    0.44799    1.000
    N3457    N        0.53496    0.49184    0.42840    1.000
    N3458    N        0.59072    0.40155    0.46086    1.000
    N3459    N        0.60985    0.48713    0.43224    1.000
    N3460    N        0.64753    0.41382    0.41977    1.000
    Si3461   Si       0.68023    0.43894    0.43647    1.000
    Si3462   Si       0.62676    0.38424    0.44400    1.000
    Si3463   Si       0.64572    0.50053    0.41184    1.000
    N3464    N        0.71486    0.41347    0.42380    1.000
    N3465    N        0.68148    0.47966    0.42286    1.000
    N3466    N        0.50436    0.27925    0.48409    1.000
    N3467    N        0.60745    0.32228    0.49385    1.000
    N3468    N        0.56948    0.26383    0.51593    1.000
    Si3469   Si       0.58428    0.30295    0.52511    1.000
    Si3470   Si       0.71070    0.28545    0.49179    1.000
    Si3471   Si       0.64355    0.34119    0.50530    1.000
    N3472    N        0.67874    0.31639    0.49704    1.000
    Si3473   Si       0.71344    0.33945    0.51153    1.000
    N3474    N        0.64908    0.37383    0.47865    1.000
    N3475    N        0.70657    0.38156    0.50467    1.000
    N3476    N        0.74134    0.31849    0.48719    1.000
    N3477    N        0.54345    0.43943    0.48193    1.000
    Si3478   Si       0.50212    0.45196    0.49842    1.000
    Si3479   Si       0.58380    0.42759    0.49478    1.000
    Si3480   Si       0.60192    0.49813    0.47548    1.000
    N3481    N        0.60513    0.46325    0.50103    1.000
    N3482    N        0.73324    0.48912    0.49358    1.000
    N3483    N        0.68077    0.43959    0.48010    1.000
    Si3484   Si       0.69917    0.46334    0.50942    1.000
    Si3485   Si       0.67135    0.40452    0.50312    1.000
    N3486    N        0.66512    0.48548    0.52854    1.000
    Si3487   Si       0.52833    0.30480    0.56778    1.000
    N3488    N        0.55293    0.32936    0.54065    1.000
    N3489    N        0.50757    0.26972    0.54991    1.000
    Si3490   Si       0.55762    0.37162    0.54835    1.000
    N3491    N        0.60573    0.29375    0.56274    1.000
    N3492    N        0.58230    0.37459    0.58355    1.000
    N3493    N        0.49053    0.32922    0.57657    1.000
    N3494    N        0.72019    0.33742    0.55373    1.000
    Si3495   Si       0.71046    0.29791    0.56946    1.000
    N3496    N        0.63832    0.35098    0.54719    1.000
    N3497    N        0.71301    0.27269    0.53403    1.000
    Si3498   Si       0.63351    0.32350    0.58061    1.000
    N3499    N        0.58546    0.39938    0.52775    1.000
    N3500    N        0.52076    0.39163    0.55224    1.000
    Si3501   Si       0.51318    0.43071    0.57055    1.000
    N3502    N        0.50786    0.46169    0.54035    1.000
    Si3503   Si       0.50957    0.50223    0.55936    1.000
    N3504    N        0.56184    0.50006    0.55319    1.000
    Si3505   Si       0.57458    0.47267    0.58729    1.000
    Si3506   Si       0.62007    0.39130    0.55807    1.000
    N3507    N        0.61312    0.45976    0.57600    1.000
    N3508    N        0.72110    0.43562    0.53701    1.000
    N3509    N        0.64754    0.41910    0.53531    1.000
    Si3510   Si       0.63137    0.45881    0.53690    1.000
    Si3511   Si       0.71958    0.43696    0.58011    1.000
    N3512    N        0.55123    0.28590    0.60000    1.000
    N3513    N        0.52395    0.37522    0.62449    1.000
    Si3514   Si       0.60514    0.37775    0.61969    1.000
    Si3515   Si       0.49412    0.34629    0.61521    1.000
    Si3516   Si       0.59241    0.26140    0.58977    1.000
    Si3517   Si       0.53809    0.28272    0.64134    1.000
    N3518    N        0.61963    0.33682    0.62053    1.000
    Si3519   Si       0.66374    0.28260    0.62642    1.000
    N3520    N        0.62459    0.26593    0.61810    1.000
    N3521    N        0.67242    0.30340    0.58916    1.000
    N3522    N        0.58121    0.49785    0.62200    1.000
    Si3523   Si       0.54557    0.41217    0.62852    1.000
    N3524    N        0.54764    0.44049    0.59518    1.000
    N3525    N        0.51714    0.50686    0.60305    1.000
    N3526    N        0.58539    0.40455    0.64624    1.000
    N3527    N        0.72854    0.39640    0.59503    1.000
    Si3528   Si       0.61916    0.49756    0.64507    1.000
    Si3529   Si       0.70890    0.48789    0.61382    1.000
    N3530    N        0.68365    0.45368    0.59853    1.000
    N3531    N        0.63347    0.40176    0.59909    1.000
    Si3532   Si       0.64079    0.44383    0.60317    1.000
    Si3533   Si       0.73304    0.39302    0.63883    1.000
    N3534    N        0.57372    0.29801    0.66354    1.000
    Si3535   Si       0.49774    0.32882    0.68349    1.000
    N3536    N        0.60639    0.34396    0.68912    1.000
    N3537    N        0.53361    0.35045    0.69618    1.000
    Si3538   Si       0.56781    0.32410    0.69864    1.000
    N3539    N        0.50490    0.31460    0.64404    1.000
    Si3540   Si       0.61459    0.31316    0.65625    1.000
    N3541    N        0.65570    0.29949    0.66577    1.000
    N3542    N        0.72365    0.30353    0.69859    1.000
    N3543    N        0.73469    0.35875    0.66675    1.000
    N3544    N        0.52121    0.43356    0.65781    1.000
    Si3545   Si       0.53969    0.45011    0.69529    1.000
    N3546    N        0.58323    0.46087    0.69173    1.000
    Si3547   Si       0.60847    0.43128    0.67275    1.000
    N3548    N        0.51992    0.48819    0.69792    1.000
    Si3549   Si       0.70741    0.38367    0.69308    1.000
    N3550    N        0.62763    0.50898    0.68536    1.000
    N3551    N        0.70208    0.48160    0.65585    1.000
    Si3552   Si       0.70925    0.48996    0.69783    1.000
    N3553    N        0.63732    0.45465    0.64736    1.000
    N3554    N        0.70066    0.41011    0.65952    1.000
    Si3555   Si       0.67815    0.44537    0.66657    1.000
    N3556    N        0.55953    0.30609    0.73611    1.000
    Si3557   Si       0.52041    0.28312    0.74256    1.000
    Si3558   Si       0.52713    0.37671    0.73102    1.000
    N3559    N        0.49195    0.29413    0.70889    1.000
    N3560    N        0.49137    0.35990    0.75052    1.000
    N3561    N        0.55866    0.36898    0.75827    1.000
    N3562    N        0.62126    0.35639    0.75281    1.000
    N3563    N        0.67000    0.29716    0.74067    1.000
    Si3564   Si       0.63492    0.37061    0.71085    1.000
    N3565    N        0.73306    0.26279    0.75572    1.000
    N3566    N        0.67523    0.35840    0.70464    1.000
    Si3567   Si       0.73681    0.26497    0.71193    1.000
    Si3568   Si       0.68040    0.31474    0.69914    1.000
    Si3569   Si       0.69027    0.25955    0.74788    1.000
    Si3570   Si       0.60315    0.49112    0.71504    1.000
    N3571    N        0.52875    0.42134    0.72616    1.000
    N3572    N        0.63227    0.41261    0.70328    1.000
    N3573    N        0.63436    0.47944    0.74266    1.000
    Si3574   Si       0.72367    0.44217    0.73724    1.000
    N3575    N        0.68716    0.45192    0.71070    1.000
    N3576    N        0.73467    0.40260    0.72272    1.000
    Si3577   Si       0.65193    0.44057    0.73196    1.000
    Si3578   Si       0.55436    0.37559    0.80499    1.000
    N3579    N        0.56202    0.33252    0.80804    1.000
    Si3580   Si       0.58217    0.33230    0.76590    1.000
    N3581    N        0.49316    0.28596    0.77651    1.000
    Si3582   Si       0.60334    0.26147    0.79775    1.000
    N3583    N        0.56363    0.26070    0.81783    1.000
    N3584    N        0.61129    0.30045    0.77985    1.000
    N3585    N        0.66465    0.35033    0.79583    1.000
    Si3586   Si       0.64708    0.32252    0.76786    1.000
    Si3587   Si       0.63477    0.38298    0.78926    1.000
    Si3588   Si       0.49518    0.49055    0.80382    1.000
    N3589    N        0.53392    0.41317    0.79897    1.000
    Si3590   Si       0.57663    0.43492    0.79691    1.000
    N3591    N        0.59420    0.39463    0.80615    1.000
    N3592    N        0.55721    0.46464    0.77293    1.000
    Si3593   Si       0.52126    0.44030    0.76650    1.000
    N3594    N        0.60403    0.50613    0.79643    1.000
    N3595    N        0.72190    0.44212    0.77824    1.000
    Si3596   Si       0.68477    0.42992    0.79939    1.000
    N3597    N        0.65792    0.41654    0.76861    1.000
    Si3598   Si       0.50733    0.34742    0.85183    1.000
    Si3599   Si       0.55824    0.29953    0.83452    1.000
    N3600    N        0.52433    0.30875    0.86270    1.000
    N3601    N        0.58801    0.29856    0.86671    1.000
    N3602    N        0.53720    0.37882    0.85271    1.000
    N3603    N        0.60255    0.37743    0.87137    1.000
    Si3604   Si       0.49963    0.27375    0.87615    1.000
    N3605    N        0.71626    0.34275    0.84379    1.000
    N3606    N        0.69867    0.27362    0.84339    1.000
    Si3607   Si       0.62802    0.28547    0.86551    1.000
    N3608    N        0.65307    0.32226    0.86171    1.000
    Si3609   Si       0.69687    0.31212    0.86537    1.000
    Si3610   Si       0.68383    0.36921    0.83257    1.000
    N3611    N        0.63032    0.25957    0.83113    1.000
    N3612    N        0.67973    0.38139    0.87910    1.000
    N3613    N        0.59131    0.44912    0.83519    1.000
    Si3614   Si       0.51938    0.42426    0.83938    1.000
    Si3615   Si       0.60033    0.49143    0.83757    1.000
    N3616    N        0.51560    0.46823    0.83454    1.000
    Si3617   Si       0.50344    0.47602    0.87452    1.000
    Si3618   Si       0.61335    0.41252    0.84661    1.000
    Si3619   Si       0.67725    0.42451    0.86266    1.000
    Si3620   Si       0.67474    0.50107    0.83803    1.000
    N3621    N        0.63735    0.50129    0.86076    1.000
    N3622    N        0.71266    0.40301    0.82421    1.000
    N3623    N        0.65324    0.40115    0.82826    1.000
    N3624    N        0.67860    0.45827    0.83094    1.000
    Si3625   Si       0.55636    0.30465    0.89709    1.000
    N3626    N        0.55721    0.34131    0.91926    1.000
    N3627    N        0.55980    0.27452    0.92630    1.000
    Si3628   Si       0.56234    0.37721    0.88980    1.000
    N3629    N        0.69975    0.32329    0.90822    1.000
    N3630    N        0.63955    0.27125    0.90511    1.000
    N3631    N        0.63766    0.34553    0.92410    1.000
    Si3632   Si       0.65921    0.30520    0.92554    1.000
    Si3633   Si       0.70717    0.36607    0.91038    1.000
    Si3634   Si       0.64004    0.36016    0.88302    1.000
    N3635    N        0.58513    0.46468    0.91750    1.000
    Si3636   Si       0.54666    0.44610    0.91611    1.000
    N3637    N        0.56127    0.40567    0.92154    1.000
    N3638    N        0.51623    0.43403    0.88654    1.000
    N3639    N        0.63691    0.43377    0.87790    1.000
    N3640    N        0.72669    0.50507    0.92351    1.000
    N3641    N        0.70838    0.44547    0.88774    1.000
    N3642    N        0.66156    0.47490    0.92812    1.000
    Si3643   Si       0.62742    0.44794    0.91709    1.000
    Si3644   Si       0.70442    0.46789    0.92513    1.000
    N3645    N        0.59160    0.31107    0.97611    1.000
    Si3646   Si       0.55987    0.34237    0.96312    1.000
    Si3647   Si       0.57439    0.27244    0.96924    1.000
    N3648    N        0.51954    0.34033    0.98161    1.000
    N3649    N        0.57506    0.37765    0.98435    1.000
    Si3650   Si       0.48609    0.36787    0.97812    1.000
    N3651    N        0.64422    0.36069    0.99285    1.000
    N3652    N        0.65931    0.29474    0.96612    1.000
    Si3653   Si       0.64958    0.37700    0.95255    1.000
    Si3654   Si       0.63110    0.31962    0.98919    1.000
    Si3655   Si       0.67532    0.26397    0.99369    1.000
    N3656    N        0.69363    0.38115    0.95014    1.000
    N3657    N        0.61589    0.49633    0.97114    1.000
    N3658    N        0.57246    0.44607    0.98045    1.000
    Si3659   Si       0.58422    0.41090    0.95842    1.000
    Si3660   Si       0.49653    0.45233    0.97642    1.000
    Si3661   Si       0.57776    0.48201    0.95823    1.000
    N3662    N        0.52111    0.46786    0.94137    1.000
    N3663    N        0.49221    0.41027    0.98194    1.000
    N3664    N        0.71896    0.44048    0.95449    1.000
    N3665    N        0.62531    0.41258    0.94358    1.000
    Si3666   Si       0.70440    0.41028    0.98161    1.000
    N3667    N        0.59830    0.53344    0.02310    1.000
    N3668    N        0.54403    0.61680    0.00976    1.000
    N3669    N        0.60111    0.60158    0.04342    1.000
    Si3670   Si       0.49608    0.56920    0.04479    1.000
    Si3671   Si       0.55528    0.60188    0.04801    1.000
    N3672    N        0.53868    0.56165    0.04348    1.000
    N3673    N        0.48801    0.53404    0.01586    1.000
    Si3674   Si       0.61441    0.57242    0.01295    1.000
    N3675    N        0.65784    0.57073    0.01289    1.000
    Si3676   Si       0.67993    0.60763    0.00806    1.000
    N3677    N        0.71142    0.60062    0.03970    1.000
    N3678    N        0.72086    0.53172    0.99903    1.000
    Si3679   Si       0.67877    0.53526    0.99817    1.000
    Si3680   Si       0.49675    0.68864    0.01165    1.000
    N3681    N        0.52574    0.71910    0.02164    1.000
    N3682    N        0.49394    0.67526    0.05351    1.000
    N3683    N        0.60082    0.65157    0.99792    1.000
    N3684    N        0.59200    0.72034    0.99611    1.000
    N3685    N        0.66130    0.64283    0.02425    1.000
    N3686    N        0.71460    0.69497    0.03189    1.000
    Si3687   Si       0.61818    0.64241    0.03654    1.000
    Si3688   Si       0.73140    0.72725    0.00563    1.000
    Si3689   Si       0.62456    0.74537    0.01128    1.000
    N3690    N        0.64690    0.71382    0.03345    1.000
    Si3691   Si       0.67486    0.68310    0.01888    1.000
    N3692    N        0.58818    0.54904    0.08589    1.000
    N3693    N        0.52983    0.61721    0.08059    1.000
    N3694    N        0.59786    0.61227    0.11467    1.000
    Si3695   Si       0.51058    0.59059    0.11458    1.000
    Si3696   Si       0.56607    0.53134    0.05275    1.000
    Si3697   Si       0.61276    0.58425    0.08578    1.000
    N3698    N        0.65666    0.58276    0.08929    1.000
    N3699    N        0.72060    0.53740    0.07227    1.000
    Si3700   Si       0.69751    0.57627    0.07206    1.000
    Si3701   Si       0.73261    0.51388    0.10756    1.000
    N3702    N        0.71542    0.59628    0.10852    1.000
    Si3703   Si       0.51606    0.71845    0.06575    1.000
    Si3704   Si       0.51259    0.65576    0.08819    1.000
    N3705    N        0.53792    0.68952    0.09710    1.000
    N3706    N        0.60173    0.72747    0.08689    1.000
    N3707    N        0.54051    0.75249    0.07846    1.000
    N3708    N        0.72594    0.66601    0.10135    1.000
    Si3709   Si       0.61961    0.64916    0.11279    1.000
    N3710    N        0.73428    0.73204    0.09717    1.000
    N3711    N        0.61900    0.66503    0.07294    1.000
    Si3712   Si       0.73641    0.69585    0.07309    1.000
    N3713    N        0.67052    0.71374    0.09766    1.000
    Si3714   Si       0.69403    0.75104    0.09729    1.000
    Si3715   Si       0.63408    0.70489    0.07202    1.000
    N3716    N        0.54586    0.57037    0.13313    1.000
    Si3717   Si       0.57632    0.53918    0.12726    1.000
    Si3718   Si       0.56300    0.61080    0.14292    1.000
    N3719    N        0.61247    0.54124    0.14920    1.000
    N3720    N        0.52349    0.62935    0.14654    1.000
    N3721    N        0.66555    0.59021    0.16337    1.000
    Si3722   Si       0.67258    0.60502    0.12375    1.000
    Si3723   Si       0.74057    0.58334    0.14284    1.000
    N3724    N        0.59630    0.67681    0.13651    1.000
    N3725    N        0.56016    0.73559    0.14236    1.000
    Si3726   Si       0.57485    0.70630    0.11389    1.000
    Si3727   Si       0.69034    0.68300    0.12169    1.000
    N3728    N        0.68861    0.70070    0.16195    1.000
    N3729    N        0.66349    0.64735    0.12269    1.000
    Si3730   Si       0.67510    0.74200    0.16981    1.000
    N3731    N        0.54924    0.52937    0.19997    1.000
    N3732    N        0.51163    0.59643    0.20334    1.000
    N3733    N        0.58057    0.62354    0.18188    1.000
    Si3734   Si       0.51243    0.52062    0.22105    1.000
    Si3735   Si       0.58386    0.61857    0.22450    1.000
    Si3736   Si       0.58158    0.54488    0.22646    1.000
    N3737    N        0.62286    0.55372    0.21330    1.000
    Si3738   Si       0.69035    0.60584    0.19490    1.000
    N3739    N        0.72916    0.60398    0.18033    1.000
    N3740    N        0.67842    0.52878    0.18266    1.000
    Si3741   Si       0.69949    0.53906    0.22015    1.000
    Si3742   Si       0.64345    0.55444    0.17503    1.000
    Si3743   Si       0.52661    0.64105    0.19087    1.000
    Si3744   Si       0.55045    0.72506    0.18403    1.000
    N3745    N        0.57998    0.73573    0.21428    1.000
    N3746    N        0.51169    0.74379    0.18770    1.000
    N3747    N        0.54883    0.68177    0.18232    1.000
    Si3748   Si       0.58766    0.66613    0.17706    1.000
    N3749    N        0.61599    0.67679    0.20810    1.000
    N3750    N        0.67711    0.64274    0.21012    1.000
    Si3751   Si       0.69580    0.68157    0.20082    1.000
    N3752    N        0.67096    0.70559    0.22670    1.000
    N3753    N        0.63294    0.74274    0.17921    1.000
    Si3754   Si       0.62312    0.71989    0.21635    1.000
    Si3755   Si       0.52201    0.59011    0.24492    1.000
    N3756    N        0.50407    0.61552    0.27602    1.000
    N3757    N        0.51026    0.54946    0.25351    1.000
    N3758    N        0.58252    0.51735    0.25889    1.000
    Si3759   Si       0.50614    0.51620    0.28145    1.000
    N3760    N        0.56479    0.58216    0.24076    1.000
    Si3761   Si       0.71162    0.59260    0.26515    1.000
    Si3762   Si       0.64039    0.57878    0.24459    1.000
    N3763    N        0.63282    0.56063    0.28290    1.000
    N3764    N        0.62339    0.61754    0.23984    1.000
    N3765    N        0.68497    0.58011    0.23193    1.000
    N3766    N        0.54109    0.72971    0.27459    1.000
    Si3767   Si       0.52184    0.65613    0.26478    1.000
    Si3768   Si       0.57911    0.74717    0.25602    1.000
    Si3769   Si       0.49715    0.72666    0.26698    1.000
    N3770    N        0.54567    0.64214    0.23414    1.000
    Si3771   Si       0.64451    0.65467    0.23561    1.000
    N3772    N        0.65773    0.66721    0.27662    1.000
    Si3773   Si       0.65899    0.71111    0.26792    1.000
    N3774    N        0.61981    0.72800    0.26008    1.000
    N3775    N        0.58085    0.54802    0.32916    1.000
    N3776    N        0.59147    0.61817    0.32418    1.000
    N3777    N        0.52691    0.60859    0.34183    1.000
    Si3778   Si       0.60230    0.53170    0.29565    1.000
    Si3779   Si       0.59804    0.58458    0.34713    1.000
    Si3780   Si       0.49262    0.61736    0.31785    1.000
    Si3781   Si       0.55295    0.52331    0.35060    1.000
    N3782    N        0.68707    0.53380    0.32001    1.000
    Si3783   Si       0.66242    0.56942    0.31359    1.000
    Si3784   Si       0.73009    0.53709    0.31272    1.000
    N3785    N        0.68494    0.60259    0.29788    1.000
    N3786    N        0.64027    0.57737    0.35081    1.000
    Si3787   Si       0.55560    0.64012    0.33351    1.000
    Si3788   Si       0.54963    0.70835    0.31300    1.000
    N3789    N        0.58943    0.71944    0.32451    1.000
    N3790    N        0.54057    0.66713    0.30215    1.000
    N3791    N        0.52532    0.72046    0.34933    1.000
    Si3792   Si       0.67697    0.70573    0.34262    1.000
    N3793    N        0.72803    0.65869    0.30330    1.000
    N3794    N        0.67833    0.66211    0.34532    1.000
    Si3795   Si       0.71546    0.74757    0.31610    1.000
    N3796    N        0.68105    0.72646    0.30212    1.000
    Si3797   Si       0.68515    0.64616    0.30448    1.000
    N3798    N        0.57669    0.59186    0.38526    1.000
    N3799    N        0.52850    0.54382    0.37933    1.000
    Si3800   Si       0.53479    0.58562    0.37883    1.000
    Si3801   Si       0.50678    0.51798    0.40777    1.000
    Si3802   Si       0.65638    0.58030    0.39016    1.000
    N3803    N        0.69432    0.59812    0.38026    1.000
    Si3804   Si       0.72681    0.56973    0.38369    1.000
    Si3805   Si       0.54776    0.70364    0.38164    1.000
    N3806    N        0.57981    0.73076    0.39176    1.000
    N3807    N        0.55157    0.66223    0.36958    1.000
    Si3808   Si       0.60624    0.74131    0.35809    1.000
    Si3809   Si       0.50447    0.75574    0.36208    1.000
    Si3810   Si       0.53596    0.64818    0.40888    1.000
    N3811    N        0.64710    0.72927    0.36595    1.000
    Si3812   Si       0.73010    0.73706    0.38704    1.000
    N3813    N        0.71934    0.71717    0.35027    1.000
    Si3814   Si       0.69798    0.64160    0.37835    1.000
    Si3815   Si       0.59320    0.60644    0.42337    1.000
    N3816    N        0.50612    0.54556    0.44466    1.000
    N3817    N        0.59759    0.58191    0.45889    1.000
    Si3818   Si       0.51106    0.58676    0.45223    1.000
    N3819    N        0.51509    0.60995    0.41033    1.000
    Si3820   Si       0.52303    0.51013    0.46631    1.000
    Si3821   Si       0.63973    0.56233    0.45482    1.000
    N3822    N        0.64916    0.54476    0.41603    1.000
    N3823    N        0.67195    0.59244    0.46234    1.000
    Si3824   Si       0.66261    0.62999    0.44299    1.000
    N3825    N        0.73077    0.53548    0.40775    1.000
    N3826    N        0.63572    0.61164    0.41383    1.000
    Si3827   Si       0.59105    0.75129    0.42886    1.000
    N3828    N        0.53018    0.69134    0.42165    1.000
    Si3829   Si       0.56500    0.68281    0.45120    1.000
    Si3830   Si       0.50405    0.72419    0.43114    1.000
    N3831    N        0.57153    0.64246    0.43316    1.000
    N3832    N        0.59780    0.71189    0.44924    1.000
    Si3833   Si       0.69929    0.68984    0.44061    1.000
    Si3834   Si       0.63534    0.69938    0.46536    1.000
    N3835    N        0.66418    0.71718    0.43851    1.000
    N3836    N        0.72780    0.71882    0.42535    1.000
    N3837    N        0.69040    0.65466    0.42005    1.000
    Si3838   Si       0.73795    0.72733    0.46969    1.000
    Si3839   Si       0.66070    0.74566    0.40496    1.000
    N3840    N        0.53133    0.60148    0.48718    1.000
    Si3841   Si       0.57400    0.59428    0.49258    1.000
    Si3842   Si       0.50726    0.62164    0.51849    1.000
    N3843    N        0.56244    0.51356    0.48543    1.000
    N3844    N        0.59342    0.63169    0.50619    1.000
    N3845    N        0.58251    0.56668    0.52477    1.000
    Si3846   Si       0.55650    0.53138    0.52446    1.000
    Si3847   Si       0.65912    0.52560    0.51916    1.000
    N3848    N        0.63311    0.52781    0.48190    1.000
    Si3849   Si       0.68985    0.59116    0.50348    1.000
    N3850    N        0.69574    0.54774    0.51213    1.000
    N3851    N        0.72442    0.61594    0.51245    1.000
    Si3852   Si       0.73577    0.53130    0.50431    1.000
    N3853    N        0.65096    0.60092    0.52186    1.000
    N3854    N        0.50164    0.73416    0.47320    1.000
    N3855    N        0.54928    0.68230    0.49175    1.000
    Si3856   Si       0.50965    0.69622    0.49953    1.000
    Si3857   Si       0.63495    0.64100    0.51049    1.000
    Si3858   Si       0.73813    0.65795    0.50856    1.000
    N3859    N        0.64650    0.65753    0.47248    1.000
    N3860    N        0.72237    0.68562    0.47832    1.000
    N3861    N        0.63615    0.71686    0.50660    1.000
    N3862    N        0.51301    0.53483    0.52903    1.000
    N3863    N        0.61035    0.60459    0.57730    1.000
    Si3864   Si       0.61929    0.58041    0.54421    1.000
    N3865    N        0.64178    0.54525    0.55461    1.000
    N3866    N        0.72601    0.58786    0.57839    1.000
    Si3867   Si       0.73542    0.54684    0.58044    1.000
    N3868    N        0.53620    0.63813    0.54732    1.000
    N3869    N        0.58170    0.69261    0.55026    1.000
    Si3870   Si       0.54661    0.71546    0.56050    1.000
    N3871    N        0.51410    0.72328    0.53356    1.000
    Si3872   Si       0.56674    0.65976    0.52525    1.000
    Si3873   Si       0.68462    0.67269    0.56176    1.000
    N3874    N        0.64177    0.66071    0.54854    1.000
    Si3875   Si       0.62580    0.70467    0.54770    1.000
    N3876    N        0.61456    0.74823    0.55568    1.000
    N3877    N        0.72250    0.67714    0.54641    1.000
    N3878    N        0.67055    0.71321    0.56333    1.000
    Si3879   Si       0.50938    0.58670    0.62666    1.000
    Si3880   Si       0.57870    0.59892    0.60426    1.000
    N3881    N        0.54562    0.56921    0.60804    1.000
    Si3882   Si       0.54839    0.52577    0.62553    1.000
    N3883    N        0.49676    0.62242    0.60478    1.000
    N3884    N        0.59677    0.59103    0.64249    1.000
    N3885    N        0.63813    0.53176    0.62490    1.000
    Si3886   Si       0.70447    0.61118    0.60829    1.000
    N3887    N        0.66790    0.58643    0.61433    1.000
    Si3888   Si       0.66272    0.54702    0.59245    1.000
    N3889    N        0.70033    0.52453    0.59200    1.000
    N3890    N        0.73537    0.62207    0.63654    1.000
    Si3891   Si       0.63490    0.57212    0.64065    1.000
    Si3892   Si       0.63812    0.63503    0.58624    1.000
    N3893    N        0.56167    0.63878    0.61275    1.000
    N3894    N        0.58196    0.70314    0.63971    1.000
    N3895    N        0.55373    0.74857    0.58688    1.000
    Si3896   Si       0.52717    0.64878    0.58846    1.000
    N3897    N        0.52175    0.69055    0.58954    1.000
    Si3898   Si       0.58724    0.65872    0.64053    1.000
    N3899    N        0.62695    0.65398    0.62297    1.000
    N3900    N        0.73159    0.73119    0.59560    1.000
    N3901    N        0.66328    0.70819    0.62712    1.000
    Si3902   Si       0.68637    0.73138    0.59774    1.000
    Si3903   Si       0.62225    0.72109    0.64097    1.000
    Si3904   Si       0.66700    0.66536    0.63478    1.000
    N3905    N        0.68233    0.64594    0.59585    1.000
    Si3906   Si       0.56580    0.57890    0.66975    1.000
    N3907    N        0.52747    0.59950    0.66667    1.000
    N3908    N        0.55324    0.53793    0.66658    1.000
    Si3909   Si       0.66908    0.60999    0.69083    1.000
    N3910    N        0.65258    0.57190    0.67997    1.000
    Si3911   Si       0.73289    0.62195    0.67903    1.000
    Si3912   Si       0.65438    0.53740    0.70625    1.000
    N3913    N        0.51157    0.70018    0.67039    1.000
    N3914    N        0.58798    0.65666    0.68559    1.000
    Si3915   Si       0.54776    0.72208    0.66120    1.000
    N3916    N        0.57131    0.72317    0.69820    1.000
    Si3917   Si       0.50601    0.67537    0.70574    1.000
    Si3918   Si       0.70263    0.67657    0.69564    1.000
    N3919    N        0.68348    0.64604    0.66987    1.000
    N3920    N        0.70448    0.71937    0.69403    1.000
    N3921    N        0.63337    0.71860    0.68310    1.000
    Si3922   Si       0.66890    0.74287    0.69163    1.000
    Si3923   Si       0.59147    0.56035    0.74286    1.000
    N3924    N        0.52049    0.56295    0.72469    1.000
    N3925    N        0.57424    0.51965    0.73136    1.000
    Si3926   Si       0.59574    0.62796    0.71525    1.000
    N3927    N        0.58346    0.58602    0.70935    1.000
    Si3928   Si       0.53837    0.52630    0.70482    1.000
    Si3929   Si       0.50885    0.59927    0.70632    1.000
    Si3930   Si       0.72344    0.55977    0.72281    1.000
    N3931    N        0.63342    0.54623    0.74588    1.000
    N3932    N        0.69606    0.52864    0.71455    1.000
    N3933    N        0.63988    0.62592    0.71736    1.000
    N3934    N        0.70955    0.59567    0.70289    1.000
    N3935    N        0.58123    0.63613    0.75816    1.000
    N3936    N        0.51984    0.63699    0.72297    1.000
    Si3937   Si       0.54857    0.73528    0.73210    1.000
    N3938    N        0.51756    0.70405    0.73623    1.000
    Si3939   Si       0.60264    0.69386    0.70461    1.000
    Si3940   Si       0.53820    0.63772    0.76201    1.000
    Si3941   Si       0.73684    0.65918    0.74478    1.000
    N3942    N        0.69418    0.66526    0.73682    1.000
    N3943    N        0.62418    0.68727    0.74167    1.000
    Si3944   Si       0.65390    0.65531    0.74441    1.000
    N3945    N        0.56881    0.55890    0.77927    1.000
    N3946    N        0.52699    0.60291    0.78713    1.000
    Si3947   Si       0.55856    0.58663    0.81200    1.000
    N3948    N        0.52101    0.51973    0.77986    1.000
    Si3949   Si       0.51920    0.56232    0.76943    1.000
    Si3950   Si       0.56450    0.50981    0.77378    1.000
    Si3951   Si       0.64022    0.51119    0.77233    1.000
    Si3952   Si       0.70880    0.54749    0.79469    1.000
    N3953    N        0.67446    0.51970    0.79854    1.000
    Si3954   Si       0.68310    0.62087    0.81076    1.000
    N3955    N        0.72309    0.57569    0.76284    1.000
    Si3956   Si       0.56089    0.75206    0.80359    1.000
    N3957    N        0.50822    0.65884    0.78662    1.000
    N3958    N        0.52362    0.72978    0.80083    1.000
    Si3959   Si       0.50072    0.69968    0.77756    1.000
    N3960    N        0.59948    0.68257    0.80711    1.000
    Si3961   Si       0.60940    0.64166    0.79185    1.000
    N3962    N        0.57619    0.73608    0.76497    1.000
    Si3963   Si       0.61079    0.71121    0.77601    1.000
    N3964    N        0.72370    0.63904    0.80488    1.000
    N3965    N        0.65163    0.63956    0.78449    1.000
    N3966    N        0.63831    0.74534    0.78408    1.000
    N3967    N        0.53462    0.57367    0.84409    1.000
    Si3968   Si       0.50586    0.60118    0.85901    1.000
    N3969    N        0.58106    0.52508    0.85753    1.000
    Si3970   Si       0.54721    0.54683    0.87444    1.000
    N3971    N        0.59501    0.61042    0.82105    1.000
    Si3972   Si       0.62025    0.60960    0.85672    1.000
    N3973    N        0.63779    0.56969    0.86270    1.000
    Si3974   Si       0.68142    0.57170    0.86113    1.000
    N3975    N        0.69699    0.53003    0.86297    1.000
    N3976    N        0.66085    0.62512    0.84833    1.000
    N3977    N        0.69691    0.58056    0.82075    1.000
    Si3978   Si       0.61697    0.53648    0.87733    1.000
    N3979    N        0.59046    0.74144    0.83305    1.000
    Si3980   Si       0.58898    0.70063    0.84722    1.000
    Si3981   Si       0.49732    0.73453    0.83463    1.000
    N3982    N        0.49365    0.69434    0.85128    1.000
    Si3983   Si       0.52050    0.67570    0.87954    1.000
    N3984    N        0.53190    0.63278    0.87908    1.000
    Si3985   Si       0.70771    0.75088    0.82990    1.000
    N3986    N        0.70044    0.67377    0.86771    1.000
    N3987    N        0.62720    0.69050    0.86849    1.000
    N3988    N        0.73155    0.71410    0.82099    1.000
    N3989    N        0.66885    0.73550    0.84235    1.000
    Si3990   Si       0.66813    0.70396    0.87377    1.000
    Si3991   Si       0.73106    0.67258    0.83410    1.000
    Si3992   Si       0.63242    0.75590    0.82839    1.000
    N3993    N        0.56080    0.57175    0.90819    1.000
    Si3994   Si       0.56223    0.61565    0.90518    1.000
    N3995    N        0.59988    0.63097    0.88970    1.000
    N3996    N        0.52336    0.51256    0.88852    1.000
    Si3997   Si       0.51963    0.51102    0.93128    1.000
    N3998    N        0.61599    0.53854    0.91942    1.000
    N3999    N        0.69321    0.59279    0.89736    1.000
    Si4000   Si       0.73459    0.52007    0.88354    1.000
    Si4001   Si       0.56968    0.71649    0.92046    1.000
    N4002    N        0.50006    0.67493    0.91904    1.000
    N4003    N        0.59514    0.75184    0.91393    1.000
    N4004    N        0.60521    0.69501    0.93499    1.000
    N4005    N        0.55796    0.69560    0.88169    1.000
    N4006    N        0.66563    0.71896    0.91745    1.000
    Si4007   Si       0.62953    0.73693    0.93599    1.000
    N4008    N        0.66155    0.65233    0.91644    1.000
    Si4009   Si       0.68297    0.63517    0.88365    1.000
    Si4010   Si       0.61934    0.66660    0.90698    1.000
    N4011    N        0.73586    0.73530    0.91739    1.000
    N4012    N        0.59499    0.58194    0.97453    1.000
    Si4013   Si       0.57574    0.62275    0.98055    1.000
    N4014    N        0.55759    0.51966    0.95269    1.000
    N4015    N        0.49901    0.60379    0.95131    1.000
    Si4016   Si       0.58312    0.55418    0.94252    1.000
    Si4017   Si       0.50453    0.61646    0.99273    1.000
    N4018    N        0.69541    0.61369    0.96673    1.000
    N4019    N        0.67292    0.54326    0.95452    1.000
    Si4020   Si       0.64383    0.51339    0.94308    1.000
    Si4021   Si       0.69331    0.57949    0.93837    1.000
    N4022    N        0.73600    0.56650    0.94040    1.000
    Si4023   Si       0.73519    0.63015    0.95418    1.000
    Si4024   Si       0.51556    0.64440    0.94380    1.000
    N4025    N        0.50320    0.65825    0.98283    1.000
    N4026    N        0.54184    0.72770    0.95109    1.000
    Si4027   Si       0.55147    0.73697    0.99219    1.000
    Si4028   Si       0.50420    0.74971    0.94303    1.000
    N4029    N        0.55696    0.63490    0.94306    1.000
    N4030    N        0.70329    0.75694    0.99161    1.000
    N4031    N        0.63874    0.75897    0.97240    1.000
    Si4032   Si       0.61511    0.68552    0.97739    1.000
    Si4033   Si       0.67950    0.68456    0.93978    1.000
    N4034    N        0.72098    0.67191    0.94382    1.000
    N4035    N        0.65987    0.68819    0.97767    1.000
    N4036    N        0.54996    0.83930    0.02901    1.000
    Si4037   Si       0.58440    0.85904    0.04690    1.000
    N4038    N        0.49180    0.79663    0.04063    1.000
    N4039    N        0.60549    0.83175    0.00094    1.000
    Si4040   Si       0.51065    0.83548    0.05192    1.000
    Si4041   Si       0.50335    0.86964    0.99817    1.000
    N4042    N        0.54354    0.77957    0.99610    1.000
    Si4043   Si       0.50054    0.78962    0.99822    1.000
    N4044    N        0.61244    0.77509    0.03905    1.000
    N4045    N        0.67159    0.80987    0.00953    1.000
    Si4046   Si       0.71228    0.78396    0.02606    1.000
    Si4047   Si       0.69673    0.84637    0.01660    1.000
    Si4048   Si       0.63212    0.81401    0.02902    1.000
    N4049    N        0.73126    0.82235    0.03099    1.000
    N4050    N        0.66903    0.88120    0.00432    1.000
    Si4051   Si       0.51195    0.93810    0.02053    1.000
    N4052    N        0.59819    0.89853    0.02829    1.000
    N4053    N        0.53071    0.90247    0.00339    1.000
    N4054    N        0.54047    0.94500    0.05386    1.000
    Si4055   Si       0.64244    0.90387    0.02810    1.000
    N4056    N        0.69398    0.00017    0.02633    1.000
    Si4057   Si       0.65589    0.98172    0.03497    1.000
    N4058    N        0.64615    0.94530    0.01347    1.000
    N4059    N        0.51422    0.84055    0.09279    1.000
    Si4060   Si       0.58437    0.76477    0.07183    1.000
    N4061    N        0.57799    0.79391    0.10629    1.000
    N4062    N        0.69722    0.78353    0.06855    1.000
    Si4063   Si       0.65596    0.86392    0.08212    1.000
    Si4064   Si       0.72101    0.82164    0.07537    1.000
    N4065    N        0.69237    0.85387    0.06330    1.000
    N4066    N        0.62375    0.84261    0.05971    1.000
    N4067    N        0.49058    0.99437    0.06432    1.000
    N4068    N        0.56714    0.88389    0.08136    1.000
    Si4069   Si       0.60068    0.99546    0.08240    1.000
    Si4070   Si       0.52760    0.97728    0.08177    1.000
    N4071    N        0.60285    0.95185    0.08109    1.000
    Si4072   Si       0.57620    0.92230    0.06055    1.000
    N4073    N        0.55986    0.00618    0.08138    1.000
    N4074    N        0.67114    0.97312    0.07696    1.000
    N4075    N        0.65258    0.90539    0.07043    1.000
    Si4076   Si       0.64466    0.94219    0.09012    1.000
    Si4077   Si       0.70524    0.99688    0.06809    1.000
    N4078    N        0.56603    0.85472    0.14359    1.000
    Si4079   Si       0.58165    0.81521    0.14371    1.000
    N4080    N        0.51873    0.79463    0.14086    1.000
    Si4081   Si       0.54461    0.76802    0.11810    1.000
    Si4082   Si       0.48995    0.81909    0.12151    1.000
    Si4083   Si       0.54041    0.86869    0.11246    1.000
    Si4084   Si       0.70952    0.80327    0.15579    1.000
    Si4085   Si       0.64819    0.84662    0.16245    1.000
    N4086    N        0.62300    0.81176    0.15892    1.000
    N4087    N        0.66142    0.86735    0.12584    1.000
    N4088    N        0.68821    0.76887    0.13670    1.000
    N4089    N        0.72278    0.82482    0.12088    1.000
    N4090    N        0.51622    0.89887    0.13557    1.000
    Si4091   Si       0.53406    0.93612    0.15620    1.000
    N4092    N        0.52473    0.96590    0.12470    1.000
    N4093    N        0.57599    0.92807    0.16765    1.000
    N4094    N        0.61266    0.00757    0.12239    1.000
    N4095    N        0.65019    0.93879    0.13299    1.000
    N4096    N        0.67796    0.00195    0.15389    1.000
    Si4097   Si       0.67980    0.90575    0.13469    1.000
    Si4098   Si       0.63890    0.97801    0.14414    1.000
    N4099    N        0.71650    0.91673    0.11251    1.000
    N4100    N        0.51310    0.81351    0.21370    1.000
    Si4101   Si       0.52447    0.78720    0.18182    1.000
    Si4102   Si       0.52260    0.85633    0.22200    1.000
    N4103    N        0.56751    0.79133    0.17843    1.000
    N4104    N        0.55706    0.87943    0.20973    1.000
    Si4105   Si       0.60893    0.78008    0.18780    1.000
    Si4106   Si       0.57982    0.88544    0.17185    1.000
    N4107    N        0.74052    0.85358    0.21619    1.000
    Si4108   Si       0.67288    0.80191    0.21601    1.000
    Si4109   Si       0.70288    0.86821    0.20155    1.000
    N4110    N        0.69541    0.76888    0.19861    1.000
    N4111    N        0.62129    0.87324    0.18223    1.000
    N4112    N        0.63109    0.79541    0.22205    1.000
    N4113    N        0.68406    0.83181    0.18328    1.000
    Si4114   Si       0.62954    0.87894    0.22362    1.000
    Si4115   Si       0.59978    0.94568    0.19811    1.000
    N4116    N        0.57332    0.97386    0.21626    1.000
    Si4117   Si       0.53200    0.97261    0.22726    1.000
    N4118    N        0.51384    0.94910    0.19375    1.000
    Si4119   Si       0.59624    0.00975    0.20814    1.000
    N4120    N        0.70093    0.89830    0.17207    1.000
    Si4121   Si       0.66459    0.00680    0.19485    1.000
    N4122    N        0.62658    0.98140    0.18801    1.000
    N4123    N        0.57725    0.78926    0.26630    1.000
    N4124    N        0.53915    0.85413    0.26180    1.000
    Si4125   Si       0.54818    0.81676    0.28262    1.000
    N4126    N        0.50801    0.80158    0.28246    1.000
    N4127    N        0.60675    0.85292    0.25062    1.000
    Si4128   Si       0.57292    0.88103    0.25118    1.000
    Si4129   Si       0.48774    0.79682    0.24505    1.000
    Si4130   Si       0.61378    0.80982    0.25998    1.000
    N4131    N        0.69487    0.81032    0.25271    1.000
    Si4132   Si       0.73580    0.82494    0.24780    1.000
    N4133    N        0.67287    0.88044    0.23054    1.000
    N4134    N        0.53126    0.95015    0.26368    1.000
    N4135    N        0.60224    0.96507    0.28530    1.000
    N4136    N        0.60992    0.91742    0.23068    1.000
    Si4137   Si       0.62801    0.93620    0.26706    1.000
    Si4138   Si       0.69873    0.97709    0.25273    1.000
    N4139    N        0.66730    0.94817    0.25126    1.000
    N4140    N        0.72341    0.90343    0.27904    1.000
    N4141    N        0.73490    0.95940    0.23972    1.000
    Si4142   Si       0.68289    0.90762    0.26264    1.000
    N4143    N        0.70035    0.99893    0.29033    1.000
    N4144    N        0.56347    0.83279    0.32005    1.000
    Si4145   Si       0.58015    0.87270    0.32304    1.000
    N4146    N        0.59840    0.78367    0.34716    1.000
    Si4147   Si       0.62603    0.81885    0.33460    1.000
    N4148    N        0.70684    0.79036    0.32693    1.000
    N4149    N        0.68809    0.85342    0.31134    1.000
    N4150    N        0.62096    0.86062    0.33073    1.000
    Si4151   Si       0.72812    0.87009    0.30664    1.000
    N4152    N        0.64059    0.80632    0.29583    1.000
    Si4153   Si       0.68220    0.81329    0.29600    1.000
    Si4154   Si       0.65734    0.88208    0.32604    1.000
    N4155    N        0.53946    0.94679    0.32633    1.000
    Si4156   Si       0.50514    0.95274    0.30019    1.000
    Si4157   Si       0.56584    0.94379    0.29143    1.000
    N4158    N        0.57581    0.90178    0.28987    1.000
    Si4159   Si       0.70707    0.97851    0.32825    1.000
    N4160    N        0.64946    0.90840    0.29316    1.000
    N4161    N        0.55339    0.81834    0.39498    1.000
    Si4162   Si       0.56927    0.85817    0.39445    1.000
    Si4163   Si       0.55930    0.80379    0.35229    1.000
    N4164    N        0.56697    0.88744    0.36268    1.000
    N4165    N        0.51388    0.75841    0.40528    1.000
    N4166    N        0.51770    0.79320    0.34556    1.000
    N4167    N        0.70640    0.83663    0.39213    1.000
    Si4168   Si       0.69369    0.80160    0.36860    1.000
    N4169    N        0.65253    0.81403    0.36878    1.000
    Si4170   Si       0.71577    0.87489    0.37503    1.000
    N4171    N        0.69726    0.76618    0.39301    1.000
    N4172    N        0.61268    0.85416    0.41047    1.000
    N4173    N        0.50338    0.90596    0.36866    1.000
    N4174    N        0.55688    0.94705    0.39587    1.000
    Si4175   Si       0.54478    0.92266    0.36242    1.000
    N4176    N        0.60362    0.98530    0.37155    1.000
    Si4177   Si       0.59934    0.95589    0.40360    1.000
    N4178    N        0.68056    0.89746    0.35993    1.000
    N4179    N        0.73051    0.99009    0.36257    1.000
    Si4180   Si       0.64140    0.00168    0.35344    1.000
    N4181    N        0.62801    0.92488    0.39764    1.000
    Si4182   Si       0.66696    0.93575    0.37949    1.000
    Si4183   Si       0.72528    0.97926    0.40465    1.000
    N4184    N        0.67000    0.96763    0.34965    1.000
    N4185    N        0.50753    0.82091    0.44611    1.000
    N4186    N        0.56084    0.77780    0.44698    1.000
    Si4187   Si       0.53113    0.79411    0.42167    1.000
    N4188    N        0.53824    0.87411    0.41989    1.000
    Si4189   Si       0.53163    0.85443    0.45812    1.000
    N4190    N        0.66338    0.81585    0.44571    1.000
    Si4191   Si       0.69577    0.84359    0.43277    1.000
    N4192    N        0.62428    0.77231    0.41548    1.000
    N4193    N        0.72963    0.83954    0.45880    1.000
    N4194    N        0.67436    0.88265    0.43315    1.000
    Si4195   Si       0.63635    0.81667    0.41002    1.000
    N4196    N        0.51615    0.99024    0.42857    1.000
    Si4197   Si       0.53124    0.95143    0.42971    1.000
    N4198    N        0.49677    0.92440    0.43665    1.000
    N4199    N        0.60538    0.97276    0.44289    1.000
    N4200    N        0.61159    0.90194    0.46081    1.000
    Si4201   Si       0.50098    0.89123    0.40801    1.000
    N4202    N        0.73441    0.89482    0.40753    1.000
    N4203    N        0.69497    0.94738    0.41251    1.000
    Si4204   Si       0.63248    0.88994    0.42406    1.000
    Si4205   Si       0.70605    0.91346    0.43523    1.000
    Si4206   Si       0.57070    0.80126    0.48481    1.000
    Si4207   Si       0.60007    0.87062    0.48861    1.000
    N4208    N        0.56932    0.84316    0.47702    1.000
    N4209    N        0.54081    0.79011    0.51652    1.000
    N4210    N        0.51297    0.87947    0.48819    1.000
    Si4211   Si       0.51215    0.75951    0.50689    1.000
    N4212    N        0.60989    0.78785    0.49454    1.000
    N4213    N        0.66626    0.78634    0.51876    1.000
    N4214    N        0.63780    0.85122    0.50023    1.000
    Si4215   Si       0.64894    0.80955    0.48649    1.000
    N4216    N        0.73009    0.76851    0.48169    1.000
    Si4217   Si       0.63213    0.75811    0.51773    1.000
    N4218    N        0.59041    0.89125    0.52512    1.000
    N4219    N        0.49360    0.94713    0.50511    1.000
    Si4220   Si       0.51245    0.92050    0.47703    1.000
    Si4221   Si       0.59650    0.94193    0.47166    1.000
    N4222    N        0.61242    0.95675    0.50888    1.000
    N4223    N        0.55230    0.94089    0.46550    1.000
    Si4224   Si       0.59515    0.99537    0.52461    1.000
    N4225    N        0.72678    0.91350    0.47481    1.000
    N4226    N        0.70941    0.97584    0.50695    1.000
    Si4227   Si       0.72979    0.93825    0.51076    1.000
    N4228    N        0.53497    0.85224    0.54768    1.000
    Si4229   Si       0.54260    0.81135    0.55871    1.000
    N4230    N        0.58350    0.80757    0.57699    1.000
    Si4231   Si       0.50141    0.87018    0.52833    1.000
    N4232    N        0.65020    0.83224    0.56682    1.000
    Si4233   Si       0.68030    0.79771    0.55855    1.000
    N4234    N        0.72512    0.79625    0.55553    1.000
    Si4235   Si       0.66025    0.86050    0.53616    1.000
    Si4236   Si       0.73854    0.87628    0.54558    1.000
    N4237    N        0.70218    0.85758    0.53105    1.000
    Si4238   Si       0.56386    0.88297    0.55871    1.000
    Si4239   Si       0.50229    0.93790    0.54741    1.000
    N4240    N        0.54199    0.92106    0.56111    1.000
    N4241    N        0.56441    0.98560    0.55253    1.000
    N4242    N        0.49798    0.97576    0.57014    1.000
    N4243    N        0.60821    0.93853    0.57796    1.000
    Si4244   Si       0.53264    0.00202    0.57562    1.000
    Si4245   Si       0.56642    0.95075    0.58379    1.000
    N4246    N        0.62941    0.00419    0.55334    1.000
    N4247    N        0.72284    0.91812    0.55077    1.000
    Si4248   Si       0.61709    0.92357    0.53767    1.000
    N4249    N        0.65465    0.90238    0.54474    1.000
    Si4250   Si       0.68339    0.91774    0.57238    1.000
    Si4251   Si       0.52039    0.76702    0.61113    1.000
    N4252    N        0.51333    0.80602    0.59280    1.000
    Si4253   Si       0.59245    0.76636    0.58769    1.000
    N4254    N        0.59408    0.87323    0.58799    1.000
    Si4255   Si       0.61383    0.83508    0.59117    1.000
    N4256    N        0.62428    0.82779    0.63301    1.000
    N4257    N        0.71780    0.82781    0.62880    1.000
    Si4258   Si       0.64829    0.78999    0.62867    1.000
    N4259    N        0.67499    0.77450    0.59642    1.000
    Si4260   Si       0.71482    0.87061    0.63855    1.000
    N4261    N        0.61578    0.76073    0.62359    1.000
    Si4262   Si       0.73969    0.81608    0.59187    1.000
    Si4263   Si       0.58194    0.00358    0.63433    1.000
    Si4264   Si       0.53014    0.94660    0.63361    1.000
    Si4265   Si       0.60497    0.90753    0.61058    1.000
    N4266    N        0.54863    0.98114    0.61238    1.000
    N4267    N        0.56570    0.92415    0.62203    1.000
    N4268    N        0.74086    0.97754    0.58921    1.000
    N4269    N        0.69175    0.89430    0.60950    1.000
    N4270    N        0.62320    0.98808    0.62371    1.000
    Si4271   Si       0.70112    0.99356    0.58391    1.000
    Si4272   Si       0.66162    0.99172    0.64435    1.000
    N4273    N        0.63234    0.91174    0.64282    1.000
    Si4274   Si       0.63464    0.97352    0.58236    1.000
    N4275    N        0.67597    0.95800    0.58436    1.000
    N4276    N        0.56556    0.82154    0.68587    1.000
    Si4277   Si       0.53203    0.79207    0.68298    1.000
    Si4278   Si       0.60586    0.83752    0.67376    1.000
    N4279    N        0.59338    0.87794    0.68880    1.000
    N4280    N        0.53531    0.76402    0.65105    1.000
    N4281    N        0.49572    0.81468    0.69584    1.000
    N4282    N        0.66648    0.78062    0.66635    1.000
    Si4283   Si       0.73042    0.80855    0.66698    1.000
    Si4284   Si       0.66946    0.80524    0.70113    1.000
    N4285    N        0.52917    0.94306    0.67755    1.000
    N4286    N        0.59526    0.94988    0.69397    1.000
    Si4287   Si       0.55605    0.96724    0.69795    1.000
    Si4288   Si       0.50667    0.91254    0.69895    1.000
    N4289    N        0.57384    0.00485    0.67800    1.000
    Si4290   Si       0.61258    0.99004    0.69967    1.000
    N4291    N        0.68402    0.95666    0.65534    1.000
    N4292    N        0.69504    0.89075    0.67237    1.000
    Si4293   Si       0.61634    0.91367    0.68465    1.000
    Si4294   Si       0.71675    0.96852    0.67972    1.000
    N4295    N        0.70991    0.00686    0.70251    1.000
    Si4296   Si       0.67465    0.91556    0.64454    1.000
    N4297    N        0.57980    0.83527    0.74843    1.000
    N4298    N        0.53020    0.77341    0.72323    1.000
    Si4299   Si       0.49846    0.79927    0.73711    1.000
    Si4300   Si       0.56157    0.85813    0.71259    1.000
    Si4301   Si       0.49782    0.86719    0.75318    1.000
    N4302    N        0.52872    0.88264    0.72293    1.000
    N4303    N        0.51171    0.82744    0.76543    1.000
    N4304    N        0.67063    0.76986    0.72672    1.000
    Si4305   Si       0.62418    0.83733    0.74706    1.000
    Si4306   Si       0.72482    0.84989    0.73318    1.000
    N4307    N        0.69241    0.87985    0.74617    1.000
    N4308    N        0.70630    0.82576    0.70142    1.000
    N4309    N        0.63429    0.82808    0.70677    1.000
    N4310    N        0.54912    0.97766    0.73856    1.000
    N4311    N        0.59104    0.92748    0.76221    1.000
    Si4312   Si       0.51301    0.00689    0.74082    1.000
    Si4313   Si       0.68873    0.90551    0.71235    1.000
    N4314    N        0.62329    0.98358    0.74206    1.000
    Si4315   Si       0.62974    0.94129    0.75044    1.000
    N4316    N        0.71919    0.93783    0.71239    1.000
    N4317    N        0.64736    0.92080    0.71452    1.000
    N4318    N        0.55599    0.79520    0.80736    1.000
    N4319    N        0.55442    0.87343    0.79563    1.000
    Si4320   Si       0.55135    0.83268    0.78042    1.000
    N4321    N        0.74050    0.82658    0.76790    1.000
    N4322    N        0.62743    0.87224    0.77383    1.000
    Si4323   Si       0.64261    0.83723    0.81032    1.000
    N4324    N        0.70464    0.76892    0.79023    1.000
    Si4325   Si       0.66575    0.77527    0.76926    1.000
    N4326    N        0.65023    0.81586    0.77132    1.000
    N4327    N        0.67496    0.86572    0.81654    1.000
    Si4328   Si       0.73885    0.78209    0.76664    1.000
    N4329    N        0.52920    0.94319    0.79519    1.000
    Si4330   Si       0.56531    0.95976    0.77563    1.000
    N4331    N        0.58930    0.98828    0.79811    1.000
    Si4332   Si       0.59324    0.89409    0.78832    1.000
    Si4333   Si       0.49689    0.97294    0.80062    1.000
    Si4334   Si       0.52660    0.90202    0.81087    1.000
    N4335    N        0.48884    0.88934    0.79155    1.000
    Si4336   Si       0.66615    0.89161    0.78003    1.000
    Si4337   Si       0.73548    0.00156    0.81337    1.000
    N4338    N        0.66025    0.93526    0.78201    1.000
    Si4339   Si       0.66570    0.96877    0.81016    1.000
    Si4340   Si       0.53569    0.80361    0.84611    1.000
    N4341    N        0.50745    0.83437    0.84768    1.000
    Si4342   Si       0.49680    0.87112    0.86601    1.000
    N4343    N        0.51291    0.76750    0.85505    1.000
    Si4344   Si       0.60820    0.81916    0.85858    1.000
    N4345    N        0.56984    0.80531    0.87223    1.000
    N4346    N        0.61209    0.85642    0.83680    1.000
    N4347    N        0.71560    0.77609    0.86408    1.000
    Si4348   Si       0.68422    0.87607    0.85790    1.000
    N4349    N        0.63470    0.79896    0.83323    1.000
    Si4350   Si       0.72598    0.81837    0.87119    1.000
    N4351    N        0.52337    0.90447    0.85326    1.000
    N4352    N        0.56124    0.96246    0.85992    1.000
    Si4353   Si       0.53369    0.99674    0.85795    1.000
    Si4354   Si       0.59525    0.96227    0.83367    1.000
    N4355    N        0.59969    0.91969    0.82364    1.000
    Si4356   Si       0.61444    0.89582    0.85640    1.000
    Si4357   Si       0.54960    0.92486    0.87966    1.000
    N4358    N        0.63507    0.97312    0.84338    1.000
    N4359    N        0.71423    0.90715    0.85403    1.000
    N4360    N        0.70719    0.97143    0.82873    1.000
    Si4361   Si       0.71259    0.94928    0.86785    1.000
    Si4362   Si       0.58688    0.79504    0.91059    1.000
    N4363    N        0.50694    0.86732    0.90860    1.000
    N4364    N        0.50728    0.79066    0.92494    1.000
    Si4365   Si       0.49464    0.83189    0.93812    1.000
    Si4366   Si       0.48822    0.77383    0.88982    1.000
    Si4367   Si       0.71795    0.77315    0.90846    1.000
    N4368    N        0.62384    0.81562    0.89930    1.000
    Si4369   Si       0.66375    0.82568    0.91351    1.000
    N4370    N        0.68537    0.78959    0.93193    1.000
    N4371    N        0.69106    0.84077    0.88207    1.000
    N4372    N        0.58691    0.90261    0.88861    1.000
    N4373    N        0.54024    0.92744    0.92322    1.000
    Si4374   Si       0.51118    0.96816    0.92645    1.000
    Si4375   Si       0.58633    0.91575    0.92967    1.000
    N4376    N        0.50365    0.98018    0.88314    1.000
    Si4377   Si       0.50244    0.90320    0.93275    1.000
    N4378    N        0.54791    0.99102    0.93746    1.000
    Si4379   Si       0.66216    0.92443    0.91124    1.000
    N4380    N        0.67770    0.96018    0.89242    1.000
    Si4381   Si       0.64740    0.98981    0.88130    1.000
    N4382    N        0.61456    0.99624    0.90911    1.000
    N4383    N        0.69502    0.90971    0.93446    1.000
    N4384    N        0.65284    0.89897    0.87636    1.000
    N4385    N        0.50856    0.83052    0.97866    1.000
    N4386    N        0.57798    0.81441    0.94852    1.000
    Si4387   Si       0.60833    0.84716    0.95871    1.000
    Si4388   Si       0.56289    0.81859    0.99163    1.000
    Si4389   Si       0.68402    0.87838    0.96327    1.000
    Si4390   Si       0.67404    0.78214    0.97396    1.000
    N4391    N        0.71862    0.85905    0.97871    1.000
    N4392    N        0.65099    0.85195    0.94686    1.000
    N4393    N        0.58499    0.88517    0.95855    1.000
    N4394    N        0.58126    0.94814    0.98514    1.000
    Si4395   Si       0.55294    0.98156    0.97892    1.000
    N4396    N        0.51245    0.96743    0.98804    1.000
    Si4397   Si       0.57134    0.90659    0.99286    1.000
    Si4398   Si       0.72682    0.94029    0.93866    1.000
    N4399    N        0.71605    0.97382    0.96140    1.000
    Si4400   Si       0.62438    0.95454    0.97578    1.000
    N4401    N        0.62684    0.99893    0.97866    1.000
    Si4402   Si       0.72013    0.00383    0.99266    1.000
    N4403    N        0.62824    0.93506    0.93631    1.000
    Si4404   Si       0.81480    0.09975    0.01490    1.000
    N4405    N        0.77883    0.09258    0.03806    1.000
    N4406    N        0.84024    0.07483    0.04094    1.000
    Si4407   Si       0.74756    0.11935    0.05368    1.000
    N4408    N        0.90503    0.09221    0.01765    1.000
    N4409    N        0.97132    0.10412    0.03329    1.000
    Si4410   Si       0.93855    0.12130    0.00837    1.000
    Si4411   Si       0.98371    0.06993    0.01030    1.000
    Si4412   Si       0.88184    0.08898    0.05405    1.000
    Si4413   Si       0.77730    0.23739    0.02701    1.000
    N4414    N        0.74973    0.20303    0.01527    1.000
    N4415    N        0.82263    0.14317    0.02299    1.000
    N4416    N        0.81647    0.24187    0.05098    1.000
    Si4417   Si       0.86041    0.21927    0.00413    1.000
    N4418    N        0.87042    0.19797    0.04066    1.000
    N4419    N        0.92878    0.15969    0.02849    1.000
    N4420    N        0.95340    0.22250    0.01687    1.000
    Si4421   Si       0.96300    0.25259    0.04213    1.000
    Si4422   Si       0.93326    0.18907    0.99686    1.000
    Si4423   Si       0.80576    0.07205    0.07052    1.000
    N4424    N        0.81037    0.11258    0.08984    1.000
    N4425    N        0.77310    0.04145    0.07181    1.000
    Si4426   Si       0.74388    0.05958    0.09818    1.000
    N4427    N        0.82452    0.05205    0.10809    1.000
    Si4428   Si       0.82691    0.01009    0.09919    1.000
    Si4429   Si       0.97109    0.03606    0.07696    1.000
    N4430    N        0.90020    0.06319    0.08526    1.000
    Si4431   Si       0.90607    0.02288    0.09656    1.000
    N4432    N        0.96512    0.07611    0.09416    1.000
    Si4433   Si       0.98208    0.11116    0.07809    1.000
    N4434    N        0.91383    0.11989    0.11148    1.000
    Si4435   Si       0.83223    0.14184    0.06675    1.000
    N4436    N        0.82051    0.18103    0.08491    1.000
    N4437    N        0.75058    0.16173    0.06992    1.000
    Si4438   Si       0.77999    0.17979    0.09800    1.000
    Si4439   Si       0.84388    0.21475    0.07321    1.000
    N4440    N        0.76831    0.21952    0.11474    1.000
    N4441    N        0.92071    0.18715    0.09046    1.000
    N4442    N        0.92538    0.25986    0.06519    1.000
    N4443    N        0.97796    0.14341    0.10699    1.000
    N4444    N        0.87374    0.23144    0.09909    1.000
    Si4445   Si       0.91667    0.22916    0.09256    1.000
    N4446    N        0.87321    0.13318    0.06318    1.000
    Si4447   Si       0.89935    0.16876    0.05734    1.000
    Si4448   Si       0.79301    0.11479    0.12836    1.000
    N4449    N        0.75923    0.08611    0.13129    1.000
    Si4450   Si       0.83197    0.06341    0.14893    1.000
    N4451    N        0.81951    0.10481    0.16126    1.000
    N4452    N        0.74789    0.02116    0.14665    1.000
    Si4453   Si       0.75830    0.06062    0.16663    1.000
    N4454    N        0.87028    0.04721    0.16044    1.000
    N4455    N        0.93466    0.03303    0.13251    1.000
    N4456    N        0.93922    0.08742    0.16231    1.000
    Si4457   Si       0.92695    0.07825    0.11767    1.000
    Si4458   Si       0.97204    0.00966    0.14097    1.000
    Si4459   Si       0.79497    0.24257    0.14092    1.000
    N4460    N        0.78225    0.15598    0.13421    1.000
    N4461    N        0.82757    0.21970    0.15636    1.000
    Si4462   Si       0.86660    0.23208    0.14200    1.000
    Si4463   Si       0.76159    0.16487    0.17138    1.000
    N4464    N        0.92767    0.16473    0.15842    1.000
    N4465    N        0.94213    0.24899    0.12425    1.000
    Si4466   Si       0.93596    0.15465    0.11685    1.000
    Si4467   Si       0.80740    0.01872    0.20961    1.000
    N4468    N        0.74595    0.08329    0.20297    1.000
    Si4469   Si       0.82286    0.12598    0.19845    1.000
    N4470    N        0.79987    0.04586    0.17573    1.000
    N4471    N        0.83627    0.10291    0.23246    1.000
    N4472    N        0.96242    0.08281    0.22098    1.000
    N4473    N        0.91694    0.02251    0.20331    1.000
    Si4474   Si       0.94540    0.11637    0.19478    1.000
    Si4475   Si       0.87880    0.01429    0.18776    1.000
    N4476    N        0.98072    0.03125    0.17783    1.000
    Si4477   Si       0.93839    0.04718    0.17541    1.000
    N4478    N        0.91122    0.13697    0.21384    1.000
    N4479    N        0.78438    0.14565    0.20363    1.000
    N4480    N        0.85072    0.15821    0.18987    1.000
    Si4481   Si       0.75024    0.24691    0.19690    1.000
    Si4482   Si       0.84192    0.20031    0.19347    1.000
    N4483    N        0.75675    0.20666    0.18166    1.000
    Si4484   Si       0.91295    0.22784    0.20272    1.000
    N4485    N        0.94947    0.20501    0.20928    1.000
    N4486    N        0.88386    0.20993    0.17560    1.000
    Si4487   Si       0.96356    0.17986    0.17685    1.000
    Si4488   Si       0.89415    0.16490    0.18452    1.000
    N4489    N        0.97985    0.14222    0.19037    1.000
    Si4490   Si       0.83728    0.09484    0.27359    1.000
    N4491    N        0.78976    0.04087    0.24404    1.000
    N4492    N        0.77159    0.11385    0.26402    1.000
    Si4493   Si       0.76180    0.07376    0.24299    1.000
    Si4494   Si       0.80654    0.02581    0.28247    1.000
    Si4495   Si       0.96919    0.09573    0.26457    1.000
    N4496    N        0.93508    0.11483    0.27731    1.000
    N4497    N        0.87887    0.10277    0.28200    1.000
    N4498    N        0.97386    0.05939    0.28605    1.000
    Si4499   Si       0.90090    0.13012    0.25466    1.000
    Si4500   Si       0.85073    0.24321    0.25937    1.000
    N4501    N        0.77190    0.18499    0.26950    1.000
    Si4502   Si       0.79106    0.22050    0.25464    1.000
    Si4503   Si       0.76325    0.15006    0.24252    1.000
    N4504    N        0.76374    0.24978    0.23887    1.000
    N4505    N        0.81229    0.24156    0.28809    1.000
    N4506    N        0.82733    0.21744    0.23040    1.000
    Si4507   Si       0.97293    0.21634    0.24527    1.000
    N4508    N        0.88561    0.16520    0.27785    1.000
    N4509    N        0.94278    0.20979    0.27828    1.000
    N4510    N        0.89021    0.22853    0.23962    1.000
    Si4511   Si       0.90064    0.20559    0.27518    1.000
    N4512    N        0.78000    0.02023    0.31806    1.000
    N4513    N        0.76403    0.09155    0.32909    1.000
    Si4514   Si       0.79388    0.06008    0.33427    1.000
    N4515    N        0.82142    0.06333    0.29898    1.000
    Si4516   Si       0.78387    0.12224    0.30610    1.000
    N4517    N        0.82480    0.13024    0.30068    1.000
    N4518    N        0.91344    0.05542    0.32054    1.000
    Si4519   Si       0.91275    0.09966    0.31453    1.000
    Si4520   Si       0.95943    0.05933    0.32636    1.000
    N4521    N        0.95676    0.10186    0.33860    1.000
    Si4522   Si       0.89494    0.02457    0.34477    1.000
    Si4523   Si       0.75451    0.18873    0.31216    1.000
    N4524    N        0.76135    0.22171    0.33790    1.000
    N4525    N        0.77083    0.15519    0.33700    1.000
    N4526    N        0.84522    0.17949    0.33752    1.000
    Si4527   Si       0.86191    0.14867    0.31264    1.000
    Si4528   Si       0.78635    0.25446    0.32058    1.000
    N4529    N        0.89173    0.13072    0.33846    1.000
    Si4530   Si       0.87347    0.21357    0.33561    1.000
    N4531    N        0.98618    0.18222    0.31936    1.000
    Si4532   Si       0.95407    0.20905    0.31987    1.000
    N4533    N        0.91598    0.19782    0.34028    1.000
    N4534    N        0.87861    0.23619    0.29927    1.000
    N4535    N        0.96909    0.24871    0.32712    1.000
    N4536    N        0.80659    0.06562    0.37489    1.000
    Si4537   Si       0.83682    0.03834    0.39026    1.000
    N4538    N        0.75595    0.10964    0.39457    1.000
    Si4539   Si       0.79879    0.10147    0.39884    1.000
    Si4540   Si       0.74281    0.12391    0.35457    1.000
    N4541    N        0.85121    0.02355    0.35132    1.000
    N4542    N        0.92178    0.02989    0.37984    1.000
    Si4543   Si       0.96951    0.12314    0.37395    1.000
    Si4544   Si       0.96101    0.01282    0.38406    1.000
    N4545    N        0.98270    0.03021    0.34924    1.000
    N4546    N        0.82101    0.13686    0.38635    1.000
    Si4547   Si       0.75403    0.21668    0.38163    1.000
    Si4548   Si       0.80670    0.16848    0.36079    1.000
    N4549    N        0.79124    0.19487    0.39199    1.000
    N4550    N        0.88080    0.18525    0.39770    1.000
    N4551    N        0.86358    0.24114    0.36516    1.000
    Si4552   Si       0.90393    0.16411    0.36683    1.000
    Si4553   Si       0.87193    0.22803    0.40719    1.000
    N4554    N        0.93346    0.14255    0.38890    1.000
    N4555    N        0.81357    0.09147    0.43816    1.000
    N4556    N        0.76521    0.04050    0.44896    1.000
    Si4557   Si       0.85700    0.08744    0.43736    1.000
    N4558    N        0.82625    0.01322    0.42424    1.000
    Si4559   Si       0.78308    0.07729    0.46515    1.000
    N4560    N        0.97952    0.02745    0.42042    1.000
    N4561    N        0.93139    0.08273    0.42776    1.000
    Si4562   Si       0.97165    0.07121    0.42936    1.000
    Si4563   Si       0.91998    0.12402    0.42714    1.000
    N4564    N        0.90415    0.01687    0.44754    1.000
    N4565    N        0.87659    0.12439    0.43017    1.000
    Si4566   Si       0.90572    0.04629    0.41591    1.000
    N4567    N        0.86727    0.06120    0.40703    1.000
    N4568    N        0.83141    0.17162    0.44648    1.000
    N4569    N        0.83231    0.23777    0.42962    1.000
    N4570    N        0.77419    0.20838    0.45856    1.000
    Si4571   Si       0.80610    0.20309    0.43032    1.000
    Si4572   Si       0.75786    0.24803    0.45020    1.000
    Si4573   Si       0.85133    0.15361    0.41259    1.000
    N4574    N        0.76115    0.25388    0.40759    1.000
    Si4575   Si       0.93294    0.25806    0.45119    1.000
    N4576    N        0.89850    0.25624    0.42713    1.000
    N4577    N        0.95839    0.22039    0.44594    1.000
    N4578    N        0.94002    0.14791    0.45821    1.000
    Si4579   Si       0.84693    0.08875    0.50875    1.000
    N4580    N        0.80498    0.07043    0.50390    1.000
    Si4581   Si       0.74528    0.12294    0.50333    1.000
    N4582    N        0.75868    0.02078    0.52028    1.000
    N4583    N        0.84182    0.13198    0.50499    1.000
    N4584    N        0.75123    0.10510    0.46491    1.000
    N4585    N        0.87151    0.07465    0.47666    1.000
    Si4586   Si       0.96941    0.12713    0.48027    1.000
    Si4587   Si       0.96731    0.07083    0.50821    1.000
    N4588    N        0.94013    0.03783    0.49814    1.000
    Si4589   Si       0.89858    0.04056    0.48618    1.000
    N4590    N        0.94927    0.11173    0.51654    1.000
    N4591    N        0.87868    0.02723    0.52310    1.000
    N4592    N        0.98340    0.08363    0.46995    1.000
    N4593    N        0.77387    0.15548    0.50622    1.000
    Si4594   Si       0.85287    0.17065    0.48435    1.000
    N4595    N        0.82561    0.19330    0.50958    1.000
    Si4596   Si       0.78097    0.19764    0.50010    1.000
    N4597    N        0.77240    0.23230    0.52525    1.000
    N4598    N        0.89455    0.18587    0.48811    1.000
    Si4599   Si       0.93762    0.18950    0.47199    1.000
    N4600    N        0.94761    0.20423    0.51404    1.000
    Si4601   Si       0.94309    0.24784    0.52141    1.000
    N4602    N        0.79157    0.04689    0.57205    1.000
    N4603    N        0.74940    0.09290    0.53517    1.000
    Si4604   Si       0.77453    0.05866    0.53348    1.000
    Si4605   Si       0.81975    0.01249    0.58004    1.000
    N4606    N        0.87047    0.08767    0.54996    1.000
    Si4607   Si       0.88620    0.04646    0.56184    1.000
    Si4608   Si       0.87410    0.12809    0.56468    1.000
    N4609    N        0.91830    0.02384    0.57940    1.000
    Si4610   Si       0.94445    0.13255    0.55480    1.000
    N4611    N        0.93955    0.10067    0.58435    1.000
    Si4612   Si       0.97575    0.07867    0.58428    1.000
    N4613    N        0.78105    0.16878    0.56952    1.000
    Si4614   Si       0.84523    0.22113    0.53938    1.000
    N4615    N        0.84022    0.15400    0.56334    1.000
    Si4616   Si       0.80901    0.15348    0.53105    1.000
    N4617    N        0.82706    0.22155    0.57904    1.000
    N4618    N        0.97850    0.15872    0.55959    1.000
    Si4619   Si       0.90806    0.18826    0.52984    1.000
    N4620    N        0.88825    0.22098    0.55086    1.000
    N4621    N        0.90760    0.15355    0.55148    1.000
    Si4622   Si       0.98538    0.18562    0.52630    1.000
    Si4623   Si       0.78428    0.06222    0.61038    1.000
    N4624    N        0.77335    0.10471    0.60319    1.000
    N4625    N        0.75278    0.04055    0.63038    1.000
    N4626    N        0.82317    0.06957    0.63261    1.000
    N4627    N        0.85595    0.03305    0.59026    1.000
    Si4628   Si       0.86297    0.05197    0.62814    1.000
    Si4629   Si       0.91549    0.10495    0.61869    1.000
    N4630    N        0.97348    0.04657    0.61364    1.000
    Si4631   Si       0.93302    0.03520    0.62114    1.000
    N4632    N        0.90264    0.06514    0.62661    1.000
    N4633    N        0.88073    0.12869    0.60999    1.000
    Si4634   Si       0.74196    0.17565    0.58542    1.000
    Si4635   Si       0.81864    0.17974    0.58986    1.000
    N4636    N        0.81691    0.15942    0.62820    1.000
    Si4637   Si       0.83554    0.25147    0.60912    1.000
    Si4638   Si       0.77959    0.13656    0.63154    1.000
    N4639    N        0.74582    0.16213    0.62588    1.000
    Si4640   Si       0.85785    0.14777    0.64078    1.000
    N4641    N        0.93347    0.22654    0.61679    1.000
    Si4642   Si       0.90658    0.24324    0.58374    1.000
    Si4643   Si       0.81668    0.09084    0.66973    1.000
    N4644    N        0.78075    0.11752    0.67013    1.000
    N4645    N        0.84888    0.12041    0.67383    1.000
    Si4646   Si       0.83902    0.02715    0.69380    1.000
    N4647    N        0.81348    0.06181    0.69907    1.000
    N4648    N        0.86725    0.02343    0.65977    1.000
    Si4649   Si       0.94759    0.08869    0.68339    1.000
    Si4650   Si       0.90273    0.01597    0.68344    1.000
    N4651    N        0.94545    0.11697    0.64947    1.000
    N4652    N        0.92286    0.05451    0.69702    1.000
    N4653    N        0.98700    0.06967    0.67934    1.000
    N4654    N        0.82296    0.23103    0.64942    1.000
    Si4655   Si       0.78462    0.22410    0.67095    1.000
    N4656    N        0.76726    0.18500    0.68621    1.000
    Si4657   Si       0.85636    0.21924    0.67205    1.000
    N4658    N        0.75086    0.22864    0.64641    1.000
    N4659    N        0.87590    0.18546    0.65098    1.000
    Si4660   Si       0.91714    0.20397    0.65354    1.000
    N4661    N        0.94278    0.17607    0.67664    1.000
    Si4662   Si       0.97331    0.14936    0.66256    1.000
    N4663    N        0.89769    0.23921    0.67438    1.000
    N4664    N        0.98481    0.24007    0.66167    1.000
    Si4665   Si       0.78310    0.05315    0.72766    1.000
    Si4666   Si       0.85752    0.12863    0.71384    1.000
    N4667    N        0.74091    0.06313    0.72849    1.000
    N4668    N        0.77318    0.00892    0.73237    1.000
    N4669    N        0.79743    0.07340    0.76271    1.000
    Si4670   Si       0.86422    0.00835    0.76163    1.000
    N4671    N        0.86827    0.09372    0.73697    1.000
    N4672    N        0.87192    0.02840    0.72382    1.000
    Si4673   Si       0.89834    0.06384    0.73069    1.000
    N4674    N        0.94370    0.11656    0.71649    1.000
    Si4675   Si       0.95749    0.10007    0.75496    1.000
    Si4676   Si       0.78177    0.14668    0.70403    1.000
    N4677    N        0.75314    0.13967    0.73428    1.000
    Si4678   Si       0.81271    0.25002    0.72926    1.000
    N4679    N        0.81829    0.14562    0.72731    1.000
    N4680    N        0.84288    0.22140    0.71527    1.000
    N4681    N        0.77751    0.25009    0.70443    1.000
    Si4682   Si       0.92910    0.15942    0.71471    1.000
    N4683    N        0.88614    0.15857    0.72348    1.000
    Si4684   Si       0.86793    0.19587    0.73910    1.000
    N4685    N        0.90564    0.21712    0.74035    1.000
    N4686    N        0.95544    0.17307    0.74778    1.000
    Si4687   Si       0.91267    0.25077    0.71492    1.000
    N4688    N        0.95497    0.25905    0.72358    1.000
    N4689    N        0.83601    0.11835    0.79178    1.000
    Si4690   Si       0.83917    0.08088    0.76777    1.000
    N4691    N        0.85381    0.04332    0.78588    1.000
    Si4692   Si       0.92940    0.03499    0.79187    1.000
    N4693    N        0.95831    0.11890    0.79650    1.000
    N4694    N        0.97123    0.02714    0.79783    1.000
    N4695    N        0.92878    0.06907    0.76217    1.000
    N4696    N        0.80178    0.23836    0.77064    1.000
    N4697    N        0.84385    0.18451    0.77306    1.000
    N4698    N        0.77920    0.16717    0.79062    1.000
    Si4699   Si       0.82621    0.21620    0.79715    1.000
    Si4700   Si       0.81630    0.15134    0.77207    1.000
    N4701    N        0.86000    0.23679    0.81268    1.000
    Si4702   Si       0.76288    0.25573    0.78614    1.000
    N4703    N        0.91665    0.18840    0.80259    1.000
    Si4704   Si       0.93628    0.20871    0.76922    1.000
    N4705    N        0.92689    0.24892    0.79134    1.000
    Si4706   Si       0.92880    0.14806    0.81274    1.000
    N4707    N        0.97888    0.22001    0.77824    1.000
    Si4708   Si       0.90319    0.22460    0.82220    1.000
    N4709    N        0.84542    0.07434    0.84681    1.000
    Si4710   Si       0.85485    0.11510    0.83035    1.000
    Si4711   Si       0.78291    0.02118    0.85175    1.000
    Si4712   Si       0.74187    0.06478    0.87122    1.000
    Si4713   Si       0.86215    0.03895    0.82967    1.000
    N4714    N        0.74175    0.03232    0.84491    1.000
    N4715    N        0.78626    0.06331    0.87812    1.000
    N4716    N        0.82674    0.13222    0.85892    1.000
    Si4717   Si       0.92314    0.02546    0.86286    1.000
    N4718    N        0.96096    0.04930    0.86198    1.000
    N4719    N        0.90551    0.03770    0.82607    1.000
    N4720    N        0.76662    0.16784    0.86766    1.000
    Si4721   Si       0.84282    0.20921    0.86533    1.000
    N4722    N        0.81291    0.20167    0.83544    1.000
    Si4723   Si       0.77049    0.18825    0.82859    1.000
    N4724    N        0.75254    0.23381    0.82332    1.000
    N4725    N        0.85312    0.24934    0.87778    1.000
    Si4726   Si       0.96876    0.19702    0.87227    1.000
    N4727    N        0.94559    0.16226    0.85318    1.000
    N4728    N        0.89306    0.13316    0.83459    1.000
    Si4729   Si       0.90504    0.15983    0.86697    1.000
    N4730    N        0.88729    0.19940    0.86030    1.000
    N4731    N        0.84094    0.07235    0.91412    1.000
    Si4732   Si       0.80930    0.03709    0.91143    1.000
    N4733    N        0.79705    0.12059    0.91106    1.000
    N4734    N        0.84858    0.01119    0.92340    1.000
    Si4735   Si       0.82115    0.09234    0.87999    1.000
    N4736    N        0.97627    0.04147    0.92439    1.000
    N4737    N        0.94723    0.10638    0.90165    1.000
    N4738    N        0.90814    0.04632    0.89717    1.000
    Si4739   Si       0.94848    0.06482    0.90031    1.000
    Si4740   Si       0.87568    0.04974    0.92541    1.000
    Si4741   Si       0.91801    0.11982    0.93124    1.000
    Si4742   Si       0.97057    0.13514    0.87852    1.000
    N4743    N        0.82988    0.18638    0.90099    1.000
    Si4744   Si       0.80300    0.15535    0.88558    1.000
    N4745    N        0.89646    0.15067    0.90919    1.000
    N4746    N        0.98019    0.16733    0.90362    1.000
    N4747    N        0.94216    0.22628    0.89095    1.000
    Si4748   Si       0.86430    0.17963    0.92797    1.000
    Si4749   Si       0.89828    0.23885    0.88606    1.000
    N4750    N        0.88395    0.21878    0.92373    1.000
    N4751    N        0.81486    0.09545    0.97260    1.000
    Si4752   Si       0.78397    0.11556    0.95021    1.000
    N4753    N        0.77654    0.03845    0.94446    1.000
    N4754    N        0.74460    0.09889    0.95505    1.000
    Si4755   Si       0.84625    0.10571    0.94487    1.000
    Si4756   Si       0.73973    0.05923    0.94388    1.000
    Si4757   Si       0.90923    0.06647    0.98373    1.000
    Si4758   Si       0.96367    0.01835    0.95815    1.000
    N4759    N        0.89035    0.09214    0.94889    1.000
    N4760    N        0.88324    0.03519    0.96923    1.000
    N4761    N        0.95190    0.05472    0.98477    1.000
    N4762    N        0.94388    0.13271    0.96551    1.000
    N4763    N        0.76184    0.21818    0.94862    1.000
    N4764    N        0.78035    0.15482    0.96931    1.000
    Si4765   Si       0.75094    0.18564    0.97630    1.000
    N4766    N        0.84728    0.14908    0.95459    1.000
    Si4767   Si       0.82116    0.16484    0.98638    1.000
    Si4768   Si       0.79684    0.24124    0.95978    1.000
    N4769    N        0.82143    0.20971    0.98371    1.000
    Si4770   Si       0.89917    0.23765    0.95860    1.000
    N4771    N        0.96281    0.19666    0.96428    1.000
    N4772    N        0.89523    0.20128    0.98227    1.000
    Si4773   Si       0.97596    0.15833    0.94852    1.000
    Si4774   Si       0.97141    0.23752    0.97740    1.000
    Si4775   Si       0.79974    0.30268    0.01112    1.000
    N4776    N        0.81378    0.30745    0.05172    1.000
    N4777    N        0.86008    0.36920    0.04568    1.000
    N4778    N        0.94262    0.29421    0.01850    1.000
    N4779    N        0.87646    0.30483    0.03482    1.000
    Si4780   Si       0.91517    0.29889    0.05208    1.000
    Si4781   Si       0.98284    0.30589    0.01004    1.000
    N4782    N        0.73706    0.40205    0.01150    1.000
    N4783    N        0.80568    0.38474    0.01363    1.000
    Si4784   Si       0.84747    0.38794    0.00209    1.000
    Si4785   Si       0.75457    0.44298    0.02485    1.000
    N4786    N        0.77739    0.49855    0.03305    1.000
    Si4787   Si       0.79514    0.49151    0.99423    1.000
    N4788    N        0.97309    0.45233    0.05195    1.000
    Si4789   Si       0.90183    0.43059    0.02853    1.000
    N4790    N        0.93327    0.43531    0.99724    1.000
    Si4791   Si       0.96156    0.41850    0.02774    1.000
    N4792    N        0.86718    0.42567    0.00480    1.000
    N4793    N        0.92726    0.40312    0.05033    1.000
    Si4794   Si       0.79935    0.27379    0.07490    1.000
    Si4795   Si       0.75714    0.35568    0.10112    1.000
    N4796    N        0.76025    0.37211    0.06300    1.000
    N4797    N        0.81317    0.27063    0.11451    1.000
    Si4798   Si       0.85019    0.32951    0.05963    1.000
    N4799    N        0.86260    0.32297    0.10186    1.000
    N4800    N        0.76007    0.26841    0.05727    1.000
    Si4801   Si       0.98170    0.26386    0.11256    1.000
    N4802    N        0.92752    0.32747    0.08000    1.000
    Si4803   Si       0.96975    0.33544    0.08019    1.000
    N4804    N        0.97405    0.37589    0.09547    1.000
    N4805    N        0.90073    0.37937    0.11012    1.000
    Si4806   Si       0.90454    0.33765    0.11562    1.000
    N4807    N        0.82183    0.38580    0.08838    1.000
    Si4808   Si       0.79166    0.47654    0.06836    1.000
    N4809    N        0.83370    0.48392    0.07758    1.000
    N4810    N        0.77007    0.49041    0.10224    1.000
    N4811    N        0.78541    0.43663    0.05622    1.000
    Si4812   Si       0.79634    0.39446    0.05438    1.000
    N4813    N        0.94165    0.43609    0.11126    1.000
    N4814    N        0.89811    0.46118    0.06057    1.000
    N4815    N        0.96232    0.50406    0.08421    1.000
    N4816    N        0.86216    0.42758    0.11061    1.000
    Si4817   Si       0.86447    0.38969    0.08388    1.000
    Si4818   Si       0.93676    0.39713    0.09257    1.000
    Si4819   Si       0.87036    0.46795    0.09605    1.000
    Si4820   Si       0.93871    0.46609    0.07897    1.000
    N4821    N        0.82351    0.32396    0.16208    1.000
    Si4822   Si       0.84329    0.29893    0.13219    1.000
    Si4823   Si       0.78014    0.31271    0.15971    1.000
    N4824    N        0.75852    0.31667    0.12046    1.000
    N4825    N        0.77500    0.26968    0.16948    1.000
    N4826    N        0.92472    0.31947    0.14812    1.000
    Si4827   Si       0.92014    0.27613    0.15050    1.000
    N4828    N        0.87538    0.27513    0.14794    1.000
    N4829    N        0.88530    0.36360    0.17068    1.000
    N4830    N        0.76931    0.38641    0.13128    1.000
    N4831    N        0.83456    0.39735    0.16288    1.000
    Si4832   Si       0.79828    0.48749    0.13526    1.000
    Si4833   Si       0.80871    0.40584    0.12583    1.000
    N4834    N        0.80439    0.44684    0.14142    1.000
    Si4835   Si       0.88165    0.40163    0.14628    1.000
    Si4836   Si       0.93242    0.45991    0.14706    1.000
    N4837    N        0.90142    0.48347    0.12662    1.000
    N4838    N        0.90848    0.42781    0.16843    1.000
    N4839    N        0.97083    0.47255    0.16744    1.000
    N4840    N        0.84108    0.34637    0.22160    1.000
    N4841    N        0.75863    0.34001    0.18568    1.000
    Si4842   Si       0.84226    0.35809    0.18155    1.000
    Si4843   Si       0.75608    0.38039    0.17135    1.000
    Si4844   Si       0.92227    0.34325    0.18490    1.000
    N4845    N        0.93172    0.32331    0.22166    1.000
    Si4846   Si       0.95620    0.28740    0.21518    1.000
    N4847    N        0.95142    0.37471    0.18123    1.000
    N4848    N        0.92930    0.26518    0.19071    1.000
    Si4849   Si       0.81102    0.49436    0.21258    1.000
    N4850    N        0.82362    0.45260    0.21834    1.000
    Si4851   Si       0.81078    0.43038    0.18269    1.000
    N4852    N        0.77450    0.41036    0.19580    1.000
    N4853    N        0.78852    0.49926    0.17592    1.000
    Si4854   Si       0.92928    0.40767    0.19934    1.000
    Si4855   Si       0.95807    0.47568    0.21148    1.000
    N4856    N        0.95344    0.43479    0.22444    1.000
    N4857    N        0.92391    0.50226    0.21985    1.000
    N4858    N        0.91084    0.38802    0.23292    1.000
    Si4859   Si       0.78031    0.35325    0.27347    1.000
    N4860    N        0.75840    0.32405    0.25055    1.000
    Si4861   Si       0.75037    0.28402    0.26382    1.000
    Si4862   Si       0.85174    0.32954    0.25861    1.000
    N4863    N        0.82084    0.34430    0.28490    1.000
    N4864    N        0.86123    0.28761    0.26036    1.000
    N4865    N        0.88862    0.34945    0.27834    1.000
    N4866    N        0.96064    0.36320    0.27116    1.000
    Si4867   Si       0.92774    0.33569    0.26377    1.000
    N4868    N        0.92677    0.29394    0.28424    1.000
    N4869    N        0.97863    0.25932    0.24716    1.000
    Si4870   Si       0.96511    0.27332    0.28939    1.000
    Si4871   Si       0.75901    0.41401    0.23730    1.000
    Si4872   Si       0.83828    0.44994    0.26011    1.000
    N4873    N        0.78900    0.39543    0.26347    1.000
    N4874    N        0.85474    0.41189    0.27368    1.000
    N4875    N        0.75198    0.45540    0.24349    1.000
    Si4876   Si       0.77167    0.48361    0.27164    1.000
    N4877    N        0.80480    0.46086    0.28710    1.000
    Si4878   Si       0.89228    0.39242    0.27129    1.000
    N4879    N        0.86926    0.48073    0.26745    1.000
    Si4880   Si       0.95761    0.40612    0.25923    1.000
    N4881    N        0.92664    0.41865    0.28932    1.000
    Si4882   Si       0.88286    0.50780    0.23258    1.000
    N4883    N        0.75815    0.35697    0.31003    1.000
    N4884    N        0.76145    0.28692    0.30492    1.000
    Si4885   Si       0.74654    0.32023    0.32703    1.000
    N4886    N        0.85557    0.37560    0.32936    1.000
    N4887    N        0.86865    0.30065    0.32718    1.000
    Si4888   Si       0.88542    0.34122    0.32320    1.000
    N4889    N        0.92122    0.34642    0.34607    1.000
    Si4890   Si       0.88732    0.27943    0.29481    1.000
    N4891    N        0.98517    0.37580    0.33601    1.000
    Si4892   Si       0.82559    0.38720    0.29602    1.000
    Si4893   Si       0.80912    0.45040    0.32750    1.000
    N4894    N        0.84805    0.46653    0.34072    1.000
    N4895    N        0.80142    0.40745    0.32723    1.000
    N4896    N        0.74933    0.49859    0.30557    1.000
    Si4897   Si       0.75776    0.39680    0.33208    1.000
    Si4898   Si       0.74287    0.46969    0.33654    1.000
    Si4899   Si       0.87484    0.48656    0.30980    1.000
    N4900    N        0.91249    0.47291    0.32690    1.000
    Si4901   Si       0.93805    0.43864    0.32633    1.000
    N4902    N        0.98102    0.44648    0.32924    1.000
    N4903    N        0.80642    0.35613    0.37588    1.000
    Si4904   Si       0.78062    0.28781    0.38881    1.000
    N4905    N        0.75072    0.31511    0.37155    1.000
    Si4906   Si       0.76435    0.35343    0.38856    1.000
    Si4907   Si       0.84787    0.27998    0.35872    1.000
    N4908    N        0.80509    0.27363    0.35589    1.000
    N4909    N        0.85530    0.30212    0.39618    1.000
    Si4910   Si       0.82585    0.33179    0.40603    1.000
    N4911    N        0.74107    0.38220    0.36862    1.000
    Si4912   Si       0.95054    0.37279    0.36242    1.000
    N4913    N        0.97155    0.29535    0.38050    1.000
    N4914    N        0.96303    0.36111    0.40528    1.000
    Si4915   Si       0.82686    0.38936    0.35894    1.000
    N4916    N        0.78001    0.46395    0.35813    1.000
    N4917    N        0.84737    0.41628    0.38640    1.000
    Si4918   Si       0.85719    0.45912    0.38317    1.000
    Si4919   Si       0.78607    0.45870    0.40006    1.000
    Si4920   Si       0.92415    0.42917    0.40036    1.000
    N4921    N        0.89795    0.46357    0.39751    1.000
    N4922    N        0.97994    0.49229    0.38063    1.000
    N4923    N        0.93483    0.41357    0.36166    1.000
    N4924    N        0.84746    0.35781    0.43137    1.000
    N4925    N        0.76012    0.35937    0.43243    1.000
    N4926    N        0.79763    0.30688    0.42463    1.000
    Si4927   Si       0.82180    0.27527    0.44819    1.000
    Si4928   Si       0.77519    0.32616    0.45959    1.000
    N4929    N        0.85703    0.29965    0.46372    1.000
    N4930    N        0.91396    0.32786    0.42590    1.000
    Si4931   Si       0.88175    0.29887    0.42923    1.000
    Si4932   Si       0.92705    0.36711    0.43512    1.000
    N4933    N        0.96186    0.29105    0.45062    1.000
    Si4934   Si       0.95485    0.31714    0.41329    1.000
    Si4935   Si       0.83699    0.46543    0.45196    1.000
    N4936    N        0.75592    0.47621    0.42493    1.000
    Si4937   Si       0.75539    0.40222    0.43898    1.000
    N4938    N        0.84659    0.42223    0.45942    1.000
    N4939    N        0.82711    0.47713    0.41055    1.000
    Si4940   Si       0.85815    0.39982    0.42495    1.000
    N4941    N        0.78507    0.41797    0.41256    1.000
    Si4942   Si       0.98185    0.39200    0.42922    1.000
    Si4943   Si       0.89564    0.49827    0.42468    1.000
    N4944    N        0.90192    0.39942    0.42353    1.000
    N4945    N        0.87557    0.48118    0.45709    1.000
    N4946    N        0.95448    0.38449    0.46416    1.000
    N4947    N        0.96503    0.42894    0.41621    1.000
    N4948    N        0.80655    0.34065    0.48737    1.000
    Si4949   Si       0.79523    0.26723    0.51781    1.000
    N4950    N        0.78856    0.27138    0.47502    1.000
    Si4951   Si       0.84533    0.34202    0.47330    1.000
    N4952    N        0.83913    0.25871    0.51841    1.000
    N4953    N        0.86540    0.37139    0.49898    1.000
    N4954    N        0.96104    0.32526    0.52013    1.000
    Si4955   Si       0.87551    0.28042    0.50200    1.000
    Si4956   Si       0.98075    0.30163    0.48981    1.000
    N4957    N        0.98474    0.26324    0.51066    1.000
    N4958    N        0.91420    0.26247    0.49312    1.000
    Si4959   Si       0.74063    0.40663    0.51300    1.000
    N4960    N        0.80427    0.47193    0.48065    1.000
    N4961    N        0.75512    0.42454    0.47690    1.000
    Si4962   Si       0.76298    0.46612    0.46902    1.000
    Si4963   Si       0.82329    0.47148    0.52060    1.000
    Si4964   Si       0.94483    0.41646    0.49559    1.000
    N4965    N        0.93221    0.49627    0.50729    1.000
    N4966    N        0.98042    0.44293    0.49370    1.000
    Si4967   Si       0.86584    0.41524    0.49770    1.000
    N4968    N        0.86079    0.49377    0.51617    1.000
    N4969    N        0.90528    0.43510    0.49640    1.000
    Si4970   Si       0.89707    0.47735    0.49610    1.000
    N4971    N        0.83049    0.35045    0.55535    1.000
    N4972    N        0.78515    0.30135    0.54376    1.000
    Si4973   Si       0.74734    0.36766    0.57055    1.000
    N4974    N        0.76713    0.37821    0.53387    1.000
    Si4975   Si       0.79507    0.34412    0.52890    1.000
    Si4976   Si       0.87075    0.35454    0.53775    1.000
    N4977    N        0.93076    0.26972    0.55726    1.000
    Si4978   Si       0.92766    0.31116    0.54250    1.000
    N4979    N        0.93279    0.33905    0.57798    1.000
    Si4980   Si       0.97892    0.36328    0.53352    1.000
    N4981    N        0.88872    0.31642    0.52728    1.000
    Si4982   Si       0.92669    0.38421    0.56893    1.000
    N4983    N        0.80002    0.49358    0.55281    1.000
    Si4984   Si       0.85659    0.42116    0.57006    1.000
    N4985    N        0.84267    0.43325    0.53140    1.000
    N4986    N        0.94976    0.39533    0.53366    1.000
    N4987    N        0.88362    0.38834    0.56187    1.000
    N4988    N        0.95005    0.47464    0.57684    1.000
    Si4989   Si       0.95847    0.50389    0.54256    1.000
    N4990    N        0.81641    0.28989    0.60797    1.000
    N4991    N        0.83824    0.35422    0.63129    1.000
    Si4992   Si       0.81730    0.36496    0.59455    1.000
    N4993    N        0.77760    0.34552    0.59212    1.000
    Si4994   Si       0.78029    0.30214    0.58735    1.000
    N4995    N        0.74224    0.28318    0.59543    1.000
    Si4996   Si       0.95946    0.26034    0.63092    1.000
    Si4997   Si       0.97059    0.33034    0.59957    1.000
    N4998    N        0.98394    0.28882    0.60665    1.000
    N4999    N        0.96382    0.35386    0.63736    1.000
    N5000    N        0.87869    0.26222    0.61063    1.000
    N5001    N        0.74335    0.46818    0.59650    1.000
    Si5002   Si       0.78122    0.48661    0.59134    1.000
    N5003    N        0.82318    0.40867    0.59348    1.000
    Si5004   Si       0.80563    0.42855    0.62826    1.000
    N5005    N        0.80446    0.47216    0.62373    1.000
    N5006    N        0.76986    0.41413    0.64239    1.000
    N5007    N        0.91971    0.47944    0.63474    1.000
    N5008    N        0.87955    0.44900    0.59419    1.000
    Si5009   Si       0.93084    0.38505    0.63899    1.000
    Si5010   Si       0.92264    0.45191    0.60063    1.000
    N5011    N        0.93256    0.40878    0.60218    1.000
    Si5012   Si       0.87712    0.48453    0.62158    1.000
    N5013    N        0.79012    0.31666    0.66619    1.000
    Si5014   Si       0.75792    0.32993    0.68955    1.000
    Si5015   Si       0.85289    0.37819    0.66535    1.000
    N5016    N        0.85754    0.29612    0.66762    1.000
    Si5017   Si       0.82651    0.31335    0.64446    1.000
    Si5018   Si       0.95385    0.32369    0.66832    1.000
    N5019    N        0.93401    0.28892    0.64969    1.000
    Si5020   Si       0.89182    0.27592    0.65061    1.000
    Si5021   Si       0.81481    0.49718    0.65743    1.000
    N5022    N        0.83060    0.41559    0.66266    1.000
    N5023    N        0.80238    0.47524    0.69335    1.000
    N5024    N        0.85907    0.49055    0.66011    1.000
    Si5025   Si       0.82033    0.43621    0.69988    1.000
    N5026    N        0.89563    0.38274    0.66496    1.000
    Si5027   Si       0.92782    0.38656    0.69840    1.000
    N5028    N        0.95691    0.40460    0.67219    1.000
    N5029    N        0.97711    0.49975    0.67247    1.000
    Si5030   Si       0.93473    0.50315    0.66866    1.000
    N5031    N        0.91364    0.48154    0.70128    1.000
    N5032    N        0.76977    0.34084    0.73139    1.000
    N5033    N        0.82340    0.29164    0.73399    1.000
    Si5034   Si       0.83962    0.37682    0.73923    1.000
    Si5035   Si       0.85738    0.31112    0.71181    1.000
    Si5036   Si       0.79782    0.31734    0.75812    1.000
    N5037    N        0.84316    0.35304    0.70284    1.000
    Si5038   Si       0.91620    0.32347    0.73725    1.000
    N5039    N        0.89504    0.28834    0.72121    1.000
    N5040    N        0.87990    0.34285    0.74961    1.000
    N5041    N        0.93572    0.34436    0.70457    1.000
    N5042    N        0.74275    0.47655    0.72117    1.000
    Si5043   Si       0.77036    0.38350    0.74168    1.000
    Si5044   Si       0.77727    0.50072    0.71952    1.000
    N5045    N        0.80676    0.40357    0.72660    1.000
    N5046    N        0.85987    0.44768    0.71414    1.000
    Si5047   Si       0.96135    0.42321    0.75342    1.000
    N5048    N        0.96982    0.46306    0.73745    1.000
    Si5049   Si       0.87058    0.48759    0.70033    1.000
    Si5050   Si       0.93416    0.48761    0.74017    1.000
    N5051    N        0.92535    0.41172    0.73159    1.000
    Si5052   Si       0.88898    0.43322    0.74352    1.000
    N5053    N        0.82096    0.35144    0.77215    1.000
    N5054    N        0.77939    0.29832    0.79432    1.000
    Si5055   Si       0.80189    0.37296    0.80452    1.000
    Si5056   Si       0.86166    0.33828    0.78776    1.000
    Si5057   Si       0.91851    0.28862    0.80833    1.000
    N5058    N        0.87486    0.29970    0.80407    1.000
    N5059    N        0.97617    0.35917    0.79682    1.000
    N5060    N        0.93995    0.30552    0.77103    1.000
    Si5061   Si       0.96225    0.26398    0.76771    1.000
    Si5062   Si       0.97898    0.31904    0.81411    1.000
    N5063    N        0.76979    0.39224    0.78348    1.000
    N5064    N        0.78202    0.46409    0.80334    1.000
    Si5065   Si       0.75221    0.42702    0.80604    1.000
    Si5066   Si       0.78154    0.50497    0.79001    1.000
    N5067    N        0.86373    0.40559    0.76512    1.000
    N5068    N        0.94991    0.42332    0.79608    1.000
    Si5069   Si       0.92064    0.45333    0.80651    1.000
    Si5070   Si       0.86859    0.40253    0.80993    1.000
    N5071    N        0.90819    0.46631    0.76680    1.000
    N5072    N        0.78404    0.35322    0.83952    1.000
    Si5073   Si       0.78488    0.31068    0.84066    1.000
    N5074    N        0.82380    0.29505    0.85145    1.000
    N5075    N        0.76213    0.28497    0.87013    1.000
    Si5076   Si       0.74599    0.37635    0.84723    1.000
    Si5077   Si       0.86151    0.27188    0.83708    1.000
    N5078    N        0.93939    0.31633    0.83398    1.000
    Si5079   Si       0.91226    0.35123    0.84264    1.000
    Si5080   Si       0.93031    0.29681    0.87130    1.000
    N5081    N        0.90598    0.26393    0.84680    1.000
    N5082    N        0.88223    0.36416    0.81730    1.000
    N5083    N        0.75775    0.48637    0.86338    1.000
    Si5084   Si       0.81076    0.41349    0.86089    1.000
    Si5085   Si       0.79432    0.47795    0.84191    1.000
    N5086    N        0.82562    0.45658    0.86536    1.000
    N5087    N        0.76671    0.41867    0.84942    1.000
    N5088    N        0.82838    0.39885    0.82473    1.000
    Si5089   Si       0.86443    0.46887    0.85133    1.000
    N5090    N        0.93663    0.48488    0.83115    1.000
    N5091    N        0.88232    0.43996    0.82413    1.000
    Si5092   Si       0.90849    0.50416    0.85898    1.000
    Si5093   Si       0.97656    0.50261    0.83073    1.000
    N5094    N        0.93692    0.38509    0.85382    1.000
    Si5095   Si       0.96634    0.39346    0.82200    1.000
    N5096    N        0.85033    0.31476    0.91594    1.000
    Si5097   Si       0.83119    0.28334    0.89471    1.000
    N5098    N        0.78802    0.33143    0.92618    1.000
    Si5099   Si       0.78156    0.37320    0.91816    1.000
    Si5100   Si       0.76915    0.29369    0.91249    1.000
    N5101    N        0.80358    0.26700    0.92451    1.000
    N5102    N        0.74514    0.37583    0.89369    1.000
    N5103    N        0.90971    0.27784    0.90727    1.000
    Si5104   Si       0.89246    0.31613    0.92180    1.000
    N5105    N        0.90974    0.33932    0.88770    1.000
    N5106    N        0.96748    0.29195    0.89302    1.000
    Si5107   Si       0.95145    0.26037    0.91811    1.000
    Si5108   Si       0.92491    0.38118    0.89567    1.000
    N5109    N        0.81560    0.39425    0.90055    1.000
    Si5110   Si       0.82026    0.46186    0.90984    1.000
    N5111    N        0.77605    0.44936    0.91583    1.000
    Si5112   Si       0.85055    0.40044    0.92518    1.000
    Si5113   Si       0.75101    0.44715    0.87935    1.000
    N5114    N        0.82708    0.50391    0.91637    1.000
    N5115    N        0.95871    0.38147    0.92175    1.000
    Si5116   Si       0.98255    0.41840    0.93021    1.000
    N5117    N        0.89352    0.47292    0.88417    1.000
    N5118    N        0.89137    0.40861    0.91111    1.000
    N5119    N        0.94760    0.44722    0.92677    1.000
    Si5120   Si       0.90278    0.45200    0.91978    1.000
    N5121    N        0.82992    0.31437    0.98523    1.000
    Si5122   Si       0.82705    0.33509    0.94701    1.000
    N5123    N        0.84393    0.37427    0.95908    1.000
    Si5124   Si       0.74202    0.29244    0.98685    1.000
    N5125    N        0.78304    0.26534    0.99481    1.000
    N5126    N        0.74099    0.28042    0.94497    1.000
    N5127    N        0.76562    0.32809    0.99911    1.000
    Si5128   Si       0.76825    0.37288    0.99621    1.000
    N5129    N        0.86936    0.25823    0.98547    1.000
    Si5130   Si       0.87015    0.30080    0.99251    1.000
    N5131    N        0.89844    0.31670    0.96445    1.000
    N5132    N        0.97235    0.32111    0.96926    1.000
    Si5133   Si       0.93632    0.30068    0.97641    1.000
    Si5134   Si       0.98409    0.35243    0.94017    1.000
    N5135    N        0.93576    0.25898    0.96169    1.000
    Si5136   Si       0.86178    0.45765    0.97501    1.000
    N5137    N        0.83722    0.48833    0.99332    1.000
    N5138    N        0.77097    0.39057    0.95662    1.000
    N5139    N        0.77623    0.45343    0.98815    1.000
    Si5140   Si       0.76263    0.43224    0.95330    1.000
    N5141    N        0.84440    0.44148    0.93778    1.000
    N5142    N        0.95768    0.50244    0.97306    1.000
    Si5143   Si       0.95289    0.45983    0.96709    1.000
    N5144    N        0.89832    0.47991    0.95648    1.000
    N5145    N        0.82132    0.60453    0.02280    1.000
    Si5146   Si       0.75186    0.60560    0.02622    1.000
    N5147    N        0.84085    0.54126    0.04083    1.000
    N5148    N        0.76951    0.56675    0.03642    1.000
    Si5149   Si       0.74580    0.52965    0.03425    1.000
    Si5150   Si       0.85254    0.62469    0.04498    1.000
    Si5151   Si       0.85377    0.52648    0.00220    1.000
    Si5152   Si       0.81055    0.57041    0.04854    1.000
    Si5153   Si       0.89214    0.54979    0.04996    1.000
    N5154    N        0.89533    0.52868    0.01041    1.000
    Si5155   Si       0.97556    0.60645    0.00827    1.000
    N5156    N        0.94238    0.62845    0.02665    1.000
    N5157    N        0.88125    0.59372    0.05616    1.000
    N5158    N        0.75028    0.75739    0.03212    1.000
    N5159    N        0.80582    0.67100    0.01601    1.000
    N5160    N        0.81739    0.73982    0.01867    1.000
    Si5161   Si       0.85613    0.75279    0.00079    1.000
    Si5162   Si       0.91164    0.64387    0.99928    1.000
    Si5163   Si       0.88267    0.69426    0.03943    1.000
    N5164    N        0.87660    0.65349    0.02503    1.000
    N5165    N        0.92485    0.69108    0.04676    1.000
    N5166    N        0.87908    0.71653    0.00176    1.000
    N5167    N        0.81175    0.56402    0.09218    1.000
    Si5168   Si       0.84047    0.52726    0.08734    1.000
    Si5169   Si       0.74551    0.62772    0.09749    1.000
    N5170    N        0.76778    0.62991    0.05890    1.000
    N5171    N        0.88397    0.52994    0.08735    1.000
    Si5172   Si       0.96047    0.54667    0.09200    1.000
    N5173    N        0.93526    0.56492    0.06110    1.000
    Si5174   Si       0.92236    0.60549    0.05916    1.000
    N5175    N        0.93762    0.63328    0.08734    1.000
    Si5176   Si       0.77898    0.73402    0.09928    1.000
    N5177    N        0.83184    0.64409    0.07866    1.000
    N5178    N        0.78088    0.69610    0.07507    1.000
    Si5179   Si       0.79623    0.66056    0.05861    1.000
    Si5180   Si       0.83579    0.74299    0.05759    1.000
    N5181    N        0.86074    0.71039    0.07326    1.000
    N5182    N        0.96029    0.75706    0.05969    1.000
    Si5183   Si       0.88314    0.70985    0.11200    1.000
    N5184    N        0.92348    0.72333    0.10758    1.000
    Si5185   Si       0.94822    0.71769    0.07101    1.000
    N5186    N        0.98169    0.69011    0.06644    1.000
    Si5187   Si       0.95394    0.66052    0.05498    1.000
    N5188    N        0.84666    0.60678    0.13574    1.000
    N5189    N        0.77298    0.60993    0.12595    1.000
    Si5190   Si       0.80908    0.58613    0.13002    1.000
    Si5191   Si       0.84105    0.53549    0.16747    1.000
    N5192    N        0.83250    0.51337    0.13080    1.000
    N5193    N        0.74117    0.54178    0.14194    1.000
    N5194    N        0.81104    0.56550    0.17104    1.000
    N5195    N        0.93980    0.55113    0.13004    1.000
    Si5196   Si       0.90234    0.52897    0.12642    1.000
    Si5197   Si       0.94267    0.58207    0.15884    1.000
    N5198    N        0.91353    0.61181    0.15335    1.000
    N5199    N        0.87974    0.55081    0.15740    1.000
    Si5200   Si       0.87608    0.59491    0.16500    1.000
    N5201    N        0.98475    0.59845    0.16411    1.000
    Si5202   Si       0.82196    0.71227    0.15641    1.000
    N5203    N        0.83150    0.67214    0.14731    1.000
    N5204    N        0.79043    0.73822    0.13993    1.000
    N5205    N        0.85875    0.73295    0.14112    1.000
    Si5206   Si       0.84947    0.64683    0.11941    1.000
    Si5207   Si       0.92325    0.64523    0.12600    1.000
    N5208    N        0.95500    0.66468    0.14734    1.000
    Si5209   Si       0.94776    0.74487    0.13826    1.000
    N5210    N        0.88694    0.66612    0.11932    1.000
    Si5211   Si       0.81502    0.59432    0.20482    1.000
    Si5212   Si       0.74966    0.51695    0.17777    1.000
    N5213    N        0.85930    0.59885    0.20542    1.000
    N5214    N        0.74367    0.54293    0.21188    1.000
    N5215    N        0.79800    0.63265    0.19724    1.000
    Si5216   Si       0.75324    0.62905    0.20538    1.000
    N5217    N        0.84897    0.51344    0.20564    1.000
    N5218    N        0.94619    0.56845    0.19927    1.000
    Si5219   Si       0.98584    0.58490    0.20567    1.000
    Si5220   Si       0.93203    0.54348    0.22987    1.000
    N5221    N        0.80877    0.70265    0.19780    1.000
    Si5222   Si       0.76921    0.69660    0.21621    1.000
    Si5223   Si       0.82980    0.66359    0.19259    1.000
    N5224    N        0.74897    0.73289    0.22278    1.000
    N5225    N        0.73835    0.66902    0.20131    1.000
    N5226    N        0.94264    0.66885    0.21875    1.000
    Si5227   Si       0.95920    0.68786    0.18346    1.000
    N5228    N        0.86815    0.67029    0.21303    1.000
    N5229    N        0.93819    0.72646    0.17650    1.000
    Si5230   Si       0.91899    0.75013    0.20698    1.000
    N5231    N        0.87614    0.75408    0.20697    1.000
    Si5232   Si       0.76879    0.55258    0.24701    1.000
    N5233    N        0.80055    0.58197    0.24397    1.000
    Si5234   Si       0.81480    0.59364    0.28365    1.000
    N5235    N        0.85808    0.59058    0.28756    1.000
    N5236    N        0.78944    0.51377    0.24629    1.000
    N5237    N        0.73727    0.55985    0.27708    1.000
    N5238    N        0.74242    0.62031    0.24727    1.000
    N5239    N        0.89098    0.55094    0.24260    1.000
    N5240    N        0.96481    0.54942    0.25910    1.000
    N5241    N        0.90532    0.62282    0.25359    1.000
    Si5242   Si       0.87484    0.59198    0.24576    1.000
    N5243    N        0.77536    0.68413    0.25697    1.000
    Si5244   Si       0.76232    0.64708    0.27593    1.000
    N5245    N        0.81283    0.74696    0.25504    1.000
    Si5246   Si       0.83653    0.73409    0.28825    1.000
    Si5247   Si       0.77012    0.75123    0.25676    1.000
    N5248    N        0.90410    0.68862    0.27429    1.000
    Si5249   Si       0.98339    0.73532    0.24539    1.000
    Si5250   Si       0.97530    0.65472    0.24327    1.000
    Si5251   Si       0.91529    0.73192    0.27953    1.000
    N5252    N        0.87624    0.75286    0.28024    1.000
    N5253    N        0.94039    0.74317    0.24597    1.000
    Si5254   Si       0.90233    0.66532    0.23835    1.000
    N5255    N        0.96559    0.63767    0.28284    1.000
    N5256    N        0.80188    0.56069    0.30848    1.000
    N5257    N        0.74684    0.55791    0.34678    1.000
    N5258    N        0.88308    0.52692    0.32447    1.000
    N5259    N        0.96024    0.51731    0.32215    1.000
    N5260    N        0.92150    0.58180    0.30765    1.000
    Si5261   Si       0.95575    0.55600    0.30213    1.000
    Si5262   Si       0.88135    0.57015    0.31919    1.000
    Si5263   Si       0.92210    0.51084    0.34227    1.000
    Si5264   Si       0.92696    0.62253    0.29185    1.000
    N5265    N        0.98884    0.58055    0.31544    1.000
    N5266    N        0.79819    0.63252    0.29522    1.000
    Si5267   Si       0.74171    0.68079    0.33885    1.000
    N5268    N        0.84271    0.69163    0.29750    1.000
    N5269    N        0.82059    0.75074    0.32487    1.000
    N5270    N        0.78254    0.69116    0.33337    1.000
    Si5271   Si       0.81531    0.66599    0.31763    1.000
    N5272    N        0.75031    0.75768    0.29365    1.000
    N5273    N        0.90739    0.64241    0.32651    1.000
    Si5274   Si       0.97556    0.74459    0.32080    1.000
    Si5275   Si       0.88448    0.67822    0.31143    1.000
    N5276    N        0.88774    0.70359    0.34624    1.000
    N5277    N        0.93371    0.74147    0.31625    1.000
    Si5278   Si       0.84357    0.61441    0.37366    1.000
    N5279    N        0.80796    0.53149    0.37108    1.000
    N5280    N        0.80321    0.60190    0.36469    1.000
    Si5281   Si       0.77195    0.62615    0.38712    1.000
    Si5282   Si       0.79072    0.56330    0.34819    1.000
    N5283    N        0.87745    0.58930    0.36222    1.000
    Si5284   Si       0.89465    0.55894    0.39039    1.000
    N5285    N        0.92513    0.53110    0.37960    1.000
    N5286    N        0.94946    0.61099    0.37652    1.000
    Si5287   Si       0.91004    0.62249    0.36535    1.000
    Si5288   Si       0.95976    0.52569    0.40438    1.000
    N5289    N        0.86828    0.52950    0.40723    1.000
    N5290    N        0.74021    0.64727    0.36676    1.000
    Si5291   Si       0.85311    0.74923    0.39330    1.000
    N5292    N        0.77463    0.74143    0.38681    1.000
    N5293    N        0.83130    0.71385    0.37899    1.000
    Si5294   Si       0.79876    0.72576    0.35440    1.000
    N5295    N        0.84265    0.65333    0.35201    1.000
    N5296    N        0.96523    0.67186    0.39455    1.000
    Si5297   Si       0.91343    0.73677    0.35538    1.000
    Si5298   Si       0.98397    0.63676    0.37694    1.000
    Si5299   Si       0.86478    0.68416    0.37704    1.000
    Si5300   Si       0.98846    0.70816    0.38743    1.000
    N5301    N        0.89788    0.65595    0.39525    1.000
    N5302    N        0.94321    0.72690    0.38550    1.000
    N5303    N        0.80451    0.54471    0.43658    1.000
    Si5304   Si       0.76404    0.55455    0.43013    1.000
    N5305    N        0.84758    0.61894    0.41695    1.000
    N5306    N        0.75468    0.59095    0.40861    1.000
    Si5307   Si       0.82615    0.52037    0.40816    1.000
    N5308    N        0.93510    0.50804    0.43872    1.000
    N5309    N        0.91276    0.58044    0.42437    1.000
    Si5310   Si       0.95575    0.59580    0.41930    1.000
    N5311    N        0.97956    0.55876    0.42216    1.000
    N5312    N        0.96284    0.62520    0.45095    1.000
    Si5313   Si       0.89625    0.58523    0.46339    1.000
    N5314    N        0.78895    0.65376    0.41407    1.000
    Si5315   Si       0.81673    0.63924    0.44380    1.000
    Si5316   Si       0.79202    0.74671    0.42874    1.000
    N5317    N        0.83655    0.74960    0.43647    1.000
    N5318    N        0.84679    0.67098    0.45124    1.000
    Si5319   Si       0.86031    0.71160    0.44860    1.000
    N5320    N        0.78136    0.72627    0.46669    1.000
    Si5321   Si       0.87867    0.64640    0.43447    1.000
    N5322    N        0.95550    0.75694    0.45745    1.000
    N5323    N        0.92842    0.69061    0.45317    1.000
    N5324    N        0.88380    0.71120    0.41078    1.000
    Si5325   Si       0.92451    0.69048    0.40818    1.000
    N5326    N        0.81266    0.54438    0.50896    1.000
    N5327    N        0.75160    0.55493    0.47093    1.000
    Si5328   Si       0.85808    0.53609    0.50948    1.000
    Si5329   Si       0.81754    0.56655    0.47203    1.000
    N5330    N        0.81207    0.60873    0.47285    1.000
    N5331    N        0.86271    0.56156    0.47467    1.000
    N5332    N        0.92811    0.56556    0.48944    1.000
    Si5333   Si       0.94212    0.52513    0.47789    1.000
    N5334    N        0.89879    0.62909    0.46847    1.000
    N5335    N        0.77947    0.67040    0.51373    1.000
    Si5336   Si       0.78796    0.71393    0.50902    1.000
    N5337    N        0.82902    0.71804    0.52030    1.000
    Si5338   Si       0.85971    0.74658    0.51332    1.000
    N5339    N        0.88248    0.72734    0.48159    1.000
    N5340    N        0.93341    0.74744    0.51859    1.000
    Si5341   Si       0.93658    0.65234    0.47202    1.000
    N5342    N        0.94864    0.66564    0.51265    1.000
    Si5343   Si       0.92774    0.72826    0.47923    1.000
    N5344    N        0.75366    0.54960    0.53985    1.000
    Si5345   Si       0.79503    0.53677    0.54783    1.000
    N5346    N        0.78740    0.61544    0.55336    1.000
    Si5347   Si       0.74946    0.59467    0.54350    1.000
    N5348    N        0.82072    0.55975    0.57383    1.000
    Si5349   Si       0.82611    0.60486    0.57740    1.000
    Si5350   Si       0.86443    0.55388    0.57732    1.000
    N5351    N        0.94884    0.54535    0.55419    1.000
    N5352    N        0.88165    0.55386    0.53856    1.000
    N5353    N        0.92143    0.61050    0.54926    1.000
    Si5354   Si       0.92129    0.57123    0.53145    1.000
    Si5355   Si       0.80106    0.65688    0.54919    1.000
    N5356    N        0.84018    0.64483    0.56724    1.000
    Si5357   Si       0.75066    0.70883    0.56303    1.000
    N5358    N        0.78433    0.68707    0.57783    1.000
    N5359    N        0.75766    0.73581    0.52848    1.000
    N5360    N        0.87585    0.75759    0.55086    1.000
    N5361    N        0.89609    0.68961    0.54988    1.000
    Si5362   Si       0.91130    0.73248    0.55392    1.000
    Si5363   Si       0.87227    0.67084    0.58301    1.000
    Si5364   Si       0.92618    0.65372    0.55110    1.000
    N5365    N        0.96632    0.65725    0.57066    1.000
    Si5366   Si       0.98169    0.67853    0.53653    1.000
    N5367    N        0.98525    0.71796    0.55206    1.000
    Si5368   Si       0.80291    0.55633    0.61488    1.000
    N5369    N        0.77138    0.53004    0.59810    1.000
    N5370    N        0.80366    0.59970    0.61846    1.000
    Si5371   Si       0.77817    0.62438    0.64137    1.000
    N5372    N        0.87372    0.52016    0.60004    1.000
    N5373    N        0.86980    0.59314    0.59397    1.000
    N5374    N        0.93534    0.57842    0.61489    1.000
    Si5375   Si       0.90953    0.60756    0.59367    1.000
    Si5376   Si       0.96830    0.56159    0.58819    1.000
    N5377    N        0.98450    0.52981    0.61170    1.000
    N5378    N        0.84992    0.69259    0.61217    1.000
    N5379    N        0.79910    0.73521    0.62898    1.000
    Si5380   Si       0.80747    0.69472    0.61421    1.000
    Si5381   Si       0.76145    0.75533    0.62166    1.000
    Si5382   Si       0.87242    0.71245    0.64241    1.000
    Si5383   Si       0.94440    0.67412    0.61927    1.000
    N5384    N        0.90835    0.65149    0.59882    1.000
    N5385    N        0.97035    0.64229    0.63266    1.000
    Si5386   Si       0.92796    0.74063    0.63777    1.000
    N5387    N        0.93025    0.73914    0.59490    1.000
    Si5388   Si       0.97389    0.73583    0.59053    1.000
    N5389    N        0.97551    0.70682    0.62615    1.000
    N5390    N        0.88627    0.75409    0.64282    1.000
    N5391    N        0.77513    0.60512    0.68132    1.000
    N5392    N        0.80667    0.53958    0.65562    1.000
    Si5393   Si       0.79083    0.56302    0.68810    1.000
    Si5394   Si       0.94139    0.57485    0.65800    1.000
    N5395    N        0.91814    0.54311    0.67609    1.000
    N5396    N        0.93190    0.61025    0.68240    1.000
    N5397    N        0.98219    0.56519    0.67017    1.000
    N5398    N        0.84901    0.71454    0.67817    1.000
    Si5399   Si       0.78173    0.67442    0.68545    1.000
    Si5400   Si       0.81137    0.73611    0.67046    1.000
    N5401    N        0.77644    0.71718    0.68963    1.000
    N5402    N        0.74267    0.66075    0.69795    1.000
    Si5403   Si       0.74274    0.74052    0.69555    1.000
    N5404    N        0.79430    0.66632    0.64395    1.000
    N5405    N        0.95963    0.67328    0.69468    1.000
    N5406    N        0.91497    0.69712    0.64608    1.000
    Si5407   Si       0.91957    0.68585    0.68828    1.000
    Si5408   Si       0.96804    0.63484    0.67645    1.000
    N5409    N        0.81459    0.57498    0.72386    1.000
    Si5410   Si       0.83393    0.54212    0.74642    1.000
    Si5411   Si       0.79491    0.61460    0.72207    1.000
    N5412    N        0.76553    0.62684    0.75288    1.000
    N5413    N        0.80105    0.51481    0.75299    1.000
    N5414    N        0.75900    0.53869    0.70518    1.000
    N5415    N        0.86630    0.52483    0.72263    1.000
    N5416    N        0.93289    0.52898    0.74455    1.000
    N5417    N        0.89554    0.58608    0.73310    1.000
    Si5418   Si       0.90451    0.54669    0.71747    1.000
    Si5419   Si       0.91147    0.62551    0.71838    1.000
    N5420    N        0.84886    0.70608    0.73883    1.000
    N5421    N        0.81350    0.65233    0.70719    1.000
    Si5422   Si       0.84873    0.67838    0.70463    1.000
    N5423    N        0.95737    0.70667    0.75896    1.000
    N5424    N        0.94145    0.63887    0.74663    1.000
    Si5425   Si       0.87027    0.73507    0.71214    1.000
    Si5426   Si       0.93266    0.73804    0.74102    1.000
    Si5427   Si       0.96976    0.67174    0.73695    1.000
    N5428    N        0.91152    0.72305    0.70818    1.000
    N5429    N        0.88853    0.65871    0.70066    1.000
    N5430    N        0.85388    0.55539    0.78385    1.000
    Si5431   Si       0.74798    0.60502    0.78673    1.000
    N5432    N        0.74557    0.52622    0.80201    1.000
    N5433    N        0.77746    0.58960    0.81509    1.000
    N5434    N        0.94714    0.57680    0.79495    1.000
    N5435    N        0.89472    0.62277    0.79169    1.000
    Si5436   Si       0.88360    0.58712    0.77415    1.000
    Si5437   Si       0.93855    0.61823    0.78511    1.000
    Si5438   Si       0.96323    0.54714    0.76866    1.000
    N5439    N        0.98845    0.51517    0.79000    1.000
    N5440    N        0.80362    0.70156    0.79841    1.000
    Si5441   Si       0.84138    0.71368    0.78035    1.000
    Si5442   Si       0.76395    0.71999    0.79007    1.000
    N5443    N        0.83021    0.64055    0.81732    1.000
    N5444    N        0.83789    0.75711    0.78356    1.000
    N5445    N        0.75049    0.69644    0.75856    1.000
    Si5446   Si       0.87416    0.65309    0.81610    1.000
    Si5447   Si       0.97346    0.72517    0.79713    1.000
    N5448    N        0.97727    0.63274    0.80535    1.000
    N5449    N        0.87554    0.69637    0.80182    1.000
    Si5450   Si       0.90251    0.72817    0.80941    1.000
    N5451    N        0.90787    0.75189    0.77356    1.000
    N5452    N        0.84204    0.57616    0.84888    1.000
    Si5453   Si       0.81285    0.60769    0.83496    1.000
    Si5454   Si       0.77305    0.54985    0.83335    1.000
    N5455    N        0.80557    0.52040    0.82379    1.000
    N5456    N        0.75843    0.55445    0.87289    1.000
    Si5457   Si       0.84432    0.54111    0.82331    1.000
    N5458    N        0.81024    0.62136    0.87813    1.000
    N5459    N        0.95488    0.59959    0.86076    1.000
    Si5460   Si       0.97910    0.58965    0.82560    1.000
    N5461    N        0.98587    0.54009    0.85297    1.000
    N5462    N        0.87085    0.50960    0.83827    1.000
    N5463    N        0.92175    0.53861    0.87680    1.000
    N5464    N        0.84005    0.69409    0.86095    1.000
    Si5465   Si       0.84541    0.73842    0.85587    1.000
    N5466    N        0.77043    0.66355    0.84989    1.000
    Si5467   Si       0.80949    0.67594    0.83476    1.000
    N5468    N        0.97246    0.74279    0.87586    1.000
    N5469    N        0.93989    0.71639    0.82255    1.000
    N5470    N        0.88167    0.75543    0.83681    1.000
    N5471    N        0.96461    0.66866    0.86003    1.000
    N5472    N        0.89443    0.64768    0.85486    1.000
    Si5473   Si       0.93638    0.63798    0.87045    1.000
    Si5474   Si       0.94724    0.71052    0.86487    1.000
    Si5475   Si       0.87767    0.68013    0.88101    1.000
    Si5476   Si       0.83469    0.58884    0.89111    1.000
    N5477    N        0.80463    0.56840    0.91706    1.000
    Si5478   Si       0.76430    0.57990    0.91038    1.000
    N5479    N        0.75335    0.62270    0.91406    1.000
    N5480    N        0.86932    0.59728    0.91562    1.000
    N5481    N        0.97739    0.57009    0.91780    1.000
    Si5482   Si       0.95834    0.56189    0.88085    1.000
    N5483    N        0.78479    0.68127    0.91538    1.000
    Si5484   Si       0.77641    0.64846    0.89000    1.000
    N5485    N        0.84988    0.75054    0.89750    1.000
    Si5486   Si       0.82502    0.67958    0.93583    1.000
    N5487    N        0.86549    0.67101    0.92072    1.000
    Si5488   Si       0.89224    0.74495    0.90420    1.000
    N5489    N        0.98444    0.68343    0.93583    1.000
    Si5490   Si       0.88784    0.63425    0.93108    1.000
    N5491    N        0.92825    0.64319    0.91307    1.000
    N5492    N        0.90818    0.70970    0.88368    1.000
    N5493    N        0.84974    0.55081    0.96764    1.000
    N5494    N        0.78147    0.52095    0.96618    1.000
    Si5495   Si       0.81527    0.53651    0.94214    1.000
    N5496    N        0.76054    0.62381    0.98795    1.000
    Si5497   Si       0.73871    0.52887    0.95893    1.000
    Si5498   Si       0.80208    0.63360    0.99392    1.000
    Si5499   Si       0.91413    0.51722    0.97318    1.000
    N5500    N        0.91821    0.55450    0.95097    1.000
    N5501    N        0.89525    0.61586    0.96995    1.000
    N5502    N        0.96522    0.62000    0.96574    1.000
    Si5503   Si       0.88063    0.57715    0.95461    1.000
    Si5504   Si       0.95472    0.57839    0.95445    1.000
    N5505    N        0.97308    0.56591    0.99118    1.000
    N5506    N        0.82348    0.71926    0.95538    1.000
    N5507    N        0.76259    0.71325    0.97859    1.000
    N5508    N        0.81889    0.64251    0.95683    1.000
    Si5509   Si       0.80233    0.70758    0.99247    1.000
    Si5510   Si       0.75340    0.70155    0.93711    1.000
    Si5511   Si       0.91321    0.71559    0.97775    1.000
    N5512    N        0.92613    0.67492    0.97355    1.000
    N5513    N        0.94284    0.74345    0.99556    1.000
    N5514    N        0.90510    0.74272    0.94539    1.000
    Si5515   Si       0.95330    0.65690    0.94618    1.000
    Si5516   Si       0.77035    0.83849    0.03679    1.000
    N5517    N        0.80097    0.80796    0.03499    1.000
    Si5518   Si       0.78670    0.77285    0.01551    1.000
    N5519    N        0.77521    0.87617    0.01626    1.000
    N5520    N        0.86365    0.77377    0.03901    1.000
    N5521    N        0.87325    0.84041    0.02645    1.000
    N5522    N        0.96801    0.80751    0.02041    1.000
    Si5523   Si       0.92942    0.82541    0.01520    1.000
    Si5524   Si       0.97296    0.76472    0.01788    1.000
    Si5525   Si       0.87234    0.88162    0.04394    1.000
    N5526    N        0.80390    0.93989    0.01190    1.000
    Si5527   Si       0.82937    0.97418    0.02315    1.000
    Si5528   Si       0.79675    0.90662    0.04002    1.000
    N5529    N        0.76158    0.00251    0.00895    1.000
    Si5530   Si       0.77172    0.00360    0.05151    1.000
    N5531    N        0.93816    0.95849    0.01798    1.000
    N5532    N        0.86983    0.96466    0.03719    1.000
    Si5533   Si       0.89778    0.94746    0.00634    1.000
    N5534    N        0.88816    0.90469    0.01156    1.000
    N5535    N        0.76664    0.83385    0.08028    1.000
    N5536    N        0.84730    0.81698    0.08858    1.000
    Si5537   Si       0.80416    0.80692    0.08076    1.000
    N5538    N        0.80673    0.76259    0.08224    1.000
    Si5539   Si       0.94723    0.79205    0.08520    1.000
    N5540    N        0.98064    0.81783    0.08742    1.000
    N5541    N        0.91925    0.81413    0.06135    1.000
    N5542    N        0.88809    0.88582    0.08354    1.000
    Si5543   Si       0.87641    0.81071    0.05737    1.000
    Si5544   Si       0.74723    0.94483    0.09840    1.000
    Si5545   Si       0.84709    0.89253    0.10001    1.000
    N5546    N        0.77301    0.92039    0.07377    1.000
    N5547    N        0.81205    0.99165    0.05991    1.000
    N5548    N        0.85193    0.93610    0.10926    1.000
    N5549    N        0.83088    0.88953    0.05955    1.000
    N5550    N        0.74385    0.97952    0.07423    1.000
    Si5551   Si       0.91809    0.90877    0.10766    1.000
    Si5552   Si       0.87391    0.96143    0.08030    1.000
    N5553    N        0.91442    0.94632    0.08591    1.000
    N5554    N        0.98098    0.95350    0.07766    1.000
    N5555    N        0.87018    0.00104    0.09825    1.000
    N5556    N        0.96202    0.89946    0.10382    1.000
    Si5557   Si       0.94361    0.96569    0.06018    1.000
    N5558    N        0.93781    0.00805    0.06912    1.000
    N5559    N        0.84028    0.86905    0.13513    1.000
    N5560    N        0.80028    0.81325    0.12891    1.000
    Si5561   Si       0.78925    0.78053    0.15673    1.000
    Si5562   Si       0.84233    0.82449    0.13117    1.000
    N5563    N        0.76445    0.87422    0.14962    1.000
    Si5564   Si       0.76313    0.84019    0.12349    1.000
    N5565    N        0.75010    0.79134    0.16688    1.000
    Si5566   Si       0.86057    0.76697    0.16897    1.000
    N5567    N        0.87411    0.80306    0.15156    1.000
    N5568    N        0.93388    0.78478    0.12678    1.000
    Si5569   Si       0.91633    0.80811    0.15988    1.000
    N5570    N        0.92912    0.84960    0.16711    1.000
    Si5571   Si       0.74168    0.91309    0.15488    1.000
    N5572    N        0.75948    0.95119    0.14167    1.000
    Si5573   Si       0.77806    0.98835    0.15449    1.000
    Si5574   Si       0.84519    0.95591    0.14951    1.000
    N5575    N        0.81668    0.98783    0.13606    1.000
    Si5576   Si       0.92025    0.95477    0.16442    1.000
    Si5577   Si       0.97640    0.93849    0.11839    1.000
    N5578    N        0.91432    0.91431    0.15117    1.000
    N5579    N        0.88215    0.97551    0.16602    1.000
    N5580    N        0.95491    0.97025    0.14049    1.000
    N5581    N        0.81113    0.86093    0.20695    1.000
    Si5582   Si       0.77075    0.87315    0.19335    1.000
    N5583    N        0.82158    0.77776    0.18814    1.000
    Si5584   Si       0.83814    0.77066    0.22659    1.000
    Si5585   Si       0.84663    0.84980    0.22854    1.000
    Si5586   Si       0.73875    0.77003    0.20309    1.000
    N5587    N        0.86938    0.86553    0.19476    1.000
    N5588    N        0.97747    0.83343    0.22405    1.000
    Si5589   Si       0.97727    0.79724    0.19970    1.000
    N5590    N        0.93587    0.78823    0.19472    1.000
    Si5591   Si       0.96850    0.85438    0.18607    1.000
    Si5592   Si       0.83433    0.88259    0.17593    1.000
    N5593    N        0.76068    0.91518    0.19650    1.000
    N5594    N        0.78737    0.98328    0.19708    1.000
    Si5595   Si       0.77239    0.94892    0.21951    1.000
    N5596    N        0.84962    0.00992    0.21886    1.000
    N5597    N        0.83342    0.92443    0.17508    1.000
    Si5598   Si       0.93549    0.99451    0.23104    1.000
    Si5599   Si       0.90699    0.88322    0.18519    1.000
    Si5600   Si       0.95200    0.92043    0.22018    1.000
    N5601    N        0.97623    0.89572    0.19545    1.000
    N5602    N        0.91527    0.89906    0.22554    1.000
    N5603    N        0.93629    0.95793    0.20661    1.000
    N5604    N        0.85320    0.80907    0.24175    1.000
    N5605    N        0.86026    0.87177    0.26481    1.000
    N5606    N        0.76000    0.79111    0.23557    1.000
    Si5607   Si       0.87541    0.79654    0.27735    1.000
    N5608    N        0.95394    0.86757    0.28152    1.000
    N5609    N        0.91603    0.81244    0.28411    1.000
    Si5610   Si       0.98779    0.84870    0.26309    1.000
    N5611    N        0.78953    0.93647    0.25705    1.000
    Si5612   Si       0.75024    0.93848    0.27713    1.000
    Si5613   Si       0.82500    0.94456    0.27814    1.000
    N5614    N        0.85838    0.94105    0.25131    1.000
    N5615    N        0.83321    0.99100    0.28590    1.000
    Si5616   Si       0.86274    0.98516    0.25252    1.000
    N5617    N        0.97402    0.99892    0.25058    1.000
    Si5618   Si       0.98985    0.96859    0.27926    1.000
    N5619    N        0.91248    0.92467    0.28934    1.000
    Si5620   Si       0.88578    0.90744    0.25705    1.000
    N5621    N        0.97539    0.92786    0.25663    1.000
    N5622    N        0.90474    0.98953    0.26225    1.000
    N5623    N        0.85042    0.81114    0.31094    1.000
    Si5624   Si       0.82294    0.79096    0.33722    1.000
    Si5625   Si       0.85222    0.85498    0.30531    1.000
    N5626    N        0.81855    0.87114    0.32880    1.000
    Si5627   Si       0.74977    0.79861    0.30918    1.000
    N5628    N        0.78348    0.80801    0.33143    1.000
    N5629    N        0.74789    0.86974    0.34478    1.000
    Si5630   Si       0.78484    0.84945    0.34685    1.000
    N5631    N        0.74278    0.83449    0.28706    1.000
    Si5632   Si       0.92727    0.84440    0.30919    1.000
    N5633    N        0.89058    0.86435    0.32544    1.000
    N5634    N        0.95315    0.84401    0.34380    1.000
    N5635    N        0.98440    0.78214    0.33631    1.000
    N5636    N        0.74796    0.95899    0.31413    1.000
    Si5637   Si       0.84238    0.98371    0.32996    1.000
    N5638    N        0.83570    0.93716    0.31820    1.000
    Si5639   Si       0.76741    0.98632    0.33950    1.000
    N5640    N        0.97062    0.91500    0.33116    1.000
    Si5641   Si       0.95517    0.91024    0.29249    1.000
    N5642    N        0.95838    0.97075    0.30792    1.000
    Si5643   Si       0.97388    0.95350    0.34701    1.000
    Si5644   Si       0.91474    0.96892    0.29884    1.000
    N5645    N        0.88923    0.98347    0.32924    1.000
    N5646    N        0.82551    0.78856    0.38007    1.000
    N5647    N        0.78983    0.84646    0.39064    1.000
    N5648    N        0.94271    0.79500    0.39385    1.000
    Si5649   Si       0.97174    0.81084    0.36419    1.000
    N5650    N        0.88706    0.76610    0.37118    1.000
    Si5651   Si       0.90094    0.79900    0.39305    1.000
    N5652    N        0.88649    0.84162    0.39231    1.000
    Si5653   Si       0.89451    0.87637    0.36764    1.000
    N5654    N        0.80564    0.97601    0.35866    1.000
    Si5655   Si       0.80118    0.95349    0.39560    1.000
    N5656    N        0.79381    0.91437    0.37852    1.000
    Si5657   Si       0.82674    0.90886    0.34998    1.000
    Si5658   Si       0.96421    0.88214    0.36090    1.000
    N5659    N        0.86144    0.90354    0.37605    1.000
    N5660    N        0.92793    0.89958    0.38138    1.000
    N5661    N        0.95236    0.97027    0.38265    1.000
    Si5662   Si       0.93570    0.93621    0.40438    1.000
    N5663    N        0.83570    0.82463    0.44312    1.000
    N5664    N        0.77986    0.78722    0.43617    1.000
    Si5665   Si       0.85150    0.78582    0.45492    1.000
    Si5666   Si       0.82771    0.86434    0.46376    1.000
    N5667    N        0.78874    0.87937    0.45196    1.000
    Si5668   Si       0.80653    0.81282    0.41201    1.000
    Si5669   Si       0.75179    0.80190    0.46422    1.000
    Si5670   Si       0.87848    0.84351    0.43737    1.000
    N5671    N        0.88938    0.79554    0.43632    1.000
    N5672    N        0.98774    0.86083    0.45013    1.000
    Si5673   Si       0.95647    0.75854    0.41398    1.000
    N5674    N        0.85913    0.88604    0.44193    1.000
    Si5675   Si       0.83709    0.97918    0.45324    1.000
    N5676    N        0.83169    0.94661    0.42551    1.000
    N5677    N        0.76676    0.97247    0.41579    1.000
    Si5678   Si       0.78553    0.00506    0.43855    1.000
    Si5679   Si       0.77614    0.88437    0.40726    1.000
    N5680    N        0.96712    0.92264    0.43135    1.000
    N5681    N        0.90005    0.94493    0.42719    1.000
    Si5682   Si       0.86535    0.92035    0.41589    1.000
    Si5683   Si       0.90619    0.97569    0.45674    1.000
    N5684    N        0.84092    0.85110    0.50199    1.000
    N5685    N        0.84321    0.78369    0.49666    1.000
    Si5686   Si       0.81611    0.81390    0.51034    1.000
    N5687    N        0.77443    0.80639    0.50270    1.000
    Si5688   Si       0.75149    0.87780    0.47446    1.000
    Si5689   Si       0.74591    0.77752    0.52282    1.000
    N5690    N        0.76880    0.88163    0.51492    1.000
    N5691    N        0.95437    0.82176    0.50009    1.000
    Si5692   Si       0.95048    0.85685    0.47529    1.000
    Si5693   Si       0.88518    0.85485    0.51176    1.000
    N5694    N        0.90569    0.85212    0.47204    1.000
    Si5695   Si       0.95634    0.78466    0.52178    1.000
    N5696    N        0.79989    0.98545    0.47491    1.000
    Si5697   Si       0.78770    0.98797    0.51718    1.000
    Si5698   Si       0.86182    0.98567    0.52071    1.000
    N5699    N        0.83441    0.92121    0.52194    1.000
    N5700    N        0.86914    0.97616    0.48058    1.000
    Si5701   Si       0.96488    0.92951    0.47412    1.000
    N5702    N        0.95383    0.89417    0.49644    1.000
    N5703    N        0.94229    0.96570    0.47946    1.000
    Si5704   Si       0.96004    0.00032    0.50064    1.000
    N5705    N        0.81953    0.81078    0.55233    1.000
    N5706    N        0.75335    0.85496    0.58086    1.000
    Si5707   Si       0.86055    0.79601    0.56192    1.000
    N5708    N        0.89087    0.82606    0.54527    1.000
    N5709    N        0.94814    0.86256    0.56589    1.000
    N5710    N        0.95460    0.79475    0.56454    1.000
    Si5711   Si       0.92630    0.82589    0.57541    1.000
    Si5712   Si       0.75436    0.94326    0.56829    1.000
    N5713    N        0.82349    0.99342    0.54258    1.000
    Si5714   Si       0.79688    0.91100    0.53476    1.000
    N5715    N        0.78560    0.91226    0.57799    1.000
    N5716    N        0.77031    0.94992    0.52800    1.000
    Si5717   Si       0.94153    0.89469    0.53681    1.000
    Si5718   Si       0.92399    0.98250    0.56550    1.000
    N5719    N        0.88972    0.96421    0.54431    1.000
    N5720    N        0.97626    0.92062    0.55257    1.000
    N5721    N        0.89725    0.89218    0.53121    1.000
    Si5722   Si       0.98193    0.96044    0.57049    1.000
    Si5723   Si       0.87154    0.92420    0.54545    1.000
    N5724    N        0.95786    0.98397    0.54103    1.000
    N5725    N        0.81262    0.85108    0.61664    1.000
    N5726    N        0.77425    0.79349    0.60560    1.000
    N5727    N        0.85098    0.79617    0.60456    1.000
    Si5728   Si       0.81144    0.81286    0.59579    1.000
    Si5729   Si       0.78049    0.88077    0.60728    1.000
    N5730    N        0.75707    0.88282    0.64455    1.000
    N5731    N        0.91190    0.82291    0.61787    1.000
    Si5732   Si       0.87946    0.79679    0.63694    1.000
    N5733    N        0.97680    0.83209    0.61718    1.000
    Si5734   Si       0.97355    0.87353    0.59980    1.000
    Si5735   Si       0.91576    0.86271    0.64151    1.000
    N5736    N        0.87451    0.87987    0.64325    1.000
    Si5737   Si       0.75923    0.99861    0.62069    1.000
    N5738    N        0.80330    0.99317    0.61596    1.000
    N5739    N        0.86607    0.92257    0.58883    1.000
    N5740    N        0.94427    0.89408    0.62466    1.000
    N5741    N        0.94376    0.95926    0.59605    1.000
    Si5742   Si       0.94043    0.93578    0.63314    1.000
    Si5743   Si       0.86676    0.92100    0.63124    1.000
    N5744    N        0.76750    0.82529    0.68023    1.000
    Si5745   Si       0.77433    0.86853    0.68286    1.000
    N5746    N        0.81640    0.87567    0.67984    1.000
    N5747    N        0.81228    0.77387    0.68954    1.000
    N5748    N        0.85911    0.81879    0.66760    1.000
    Si5749   Si       0.84171    0.85378    0.64943    1.000
    N5750    N        0.74211    0.76701    0.65944    1.000
    Si5751   Si       0.84531    0.80011    0.70420    1.000
    N5752    N        0.93293    0.84119    0.67666    1.000
    N5753    N        0.94998    0.77121    0.65635    1.000
    Si5754   Si       0.97658    0.76796    0.68992    1.000
    Si5755   Si       0.96023    0.81398    0.65339    1.000
    N5756    N        0.82773    0.93596    0.64726    1.000
    N5757    N        0.81919    0.98980    0.68932    1.000
    Si5758   Si       0.80032    0.96805    0.65617    1.000
    N5759    N        0.75670    0.97465    0.65792    1.000
    Si5760   Si       0.82846    0.91663    0.68695    1.000
    N5761    N        0.93749    0.00847    0.65522    1.000
    Si5762   Si       0.97708    0.90811    0.69352    1.000
    Si5763   Si       0.96410    0.98872    0.68308    1.000
    N5764    N        0.93260    0.90585    0.69780    1.000
    N5765    N        0.97385    0.94703    0.66368    1.000
    Si5766   Si       0.90189    0.93592    0.68987    1.000
    N5767    N        0.90082    0.94126    0.64820    1.000
    N5768    N        0.81757    0.81539    0.73523    1.000
    N5769    N        0.74812    0.77300    0.72535    1.000
    Si5770   Si       0.78271    0.79779    0.71175    1.000
    N5771    N        0.75352    0.87974    0.72045    1.000
    N5772    N        0.82699    0.87979    0.76306    1.000
    N5773    N        0.87158    0.77465    0.72473    1.000
    Si5774   Si       0.92947    0.86392    0.71295    1.000
    N5775    N        0.89626    0.86594    0.74168    1.000
    N5776    N        0.97231    0.86706    0.72431    1.000
    N5777    N        0.96123    0.76801    0.72952    1.000
    Si5778   Si       0.79990    0.97520    0.72494    1.000
    Si5779   Si       0.75607    0.92388    0.72465    1.000
    N5780    N        0.82824    0.98396    0.75811    1.000
    N5781    N        0.86656    0.91979    0.70624    1.000
    N5782    N        0.79272    0.93497    0.70253    1.000
    Si5783   Si       0.92941    0.97637    0.74404    1.000
    N5784    N        0.91119    0.97729    0.70452    1.000
    Si5785   Si       0.86401    0.89705    0.74368    1.000
    N5786    N        0.96704    0.99577    0.72723    1.000
    N5787    N        0.80276    0.82126    0.79948    1.000
    Si5788   Si       0.80745    0.77672    0.80381    1.000
    Si5789   Si       0.76293    0.84002    0.80198    1.000
    Si5790   Si       0.83064    0.83677    0.76960    1.000
    N5791    N        0.76988    0.76214    0.78996    1.000
    N5792    N        0.76704    0.88480    0.80301    1.000
    N5793    N        0.87177    0.82040    0.77916    1.000
    N5794    N        0.94506    0.82700    0.76895    1.000
    Si5795   Si       0.90784    0.84488    0.78126    1.000
    N5796    N        0.97971    0.76997    0.79885    1.000
    Si5797   Si       0.87403    0.77875    0.76906    1.000
    N5798    N        0.91888    0.88151    0.80326    1.000
    Si5799   Si       0.97840    0.85341    0.76690    1.000
    Si5800   Si       0.97264    0.79188    0.76245    1.000
    Si5801   Si       0.79811    0.96722    0.78910    1.000
    Si5802   Si       0.79745    0.90561    0.78270    1.000
    N5803    N        0.81755    0.93372    0.81058    1.000
    N5804    N        0.77974    0.99364    0.81553    1.000
    N5805    N        0.77662    0.93893    0.76162    1.000
    Si5806   Si       0.85783    0.92173    0.81807    1.000
    N5807    N        0.98602    0.89304    0.78407    1.000
    Si5808   Si       0.98651    0.00710    0.76329    1.000
    N5809    N        0.90881    0.00254    0.76944    1.000
    Si5810   Si       0.91530    0.92320    0.79482    1.000
    N5811    N        0.94189    0.94082    0.76349    1.000
    N5812    N        0.87537    0.92267    0.77681    1.000
    Si5813   Si       0.98329    0.93171    0.76345    1.000
    N5814    N        0.81276    0.76336    0.84627    1.000
    N5815    N        0.85563    0.81536    0.86498    1.000
    N5816    N        0.74431    0.84195    0.84114    1.000
    Si5817   Si       0.86215    0.85678    0.87059    1.000
    Si5818   Si       0.89346    0.79374    0.85384    1.000
    N5819    N        0.96843    0.87023    0.85213    1.000
    Si5820   Si       0.92805    0.86036    0.84106    1.000
    N5821    N        0.91577    0.82124    0.82965    1.000
    N5822    N        0.97540    0.80809    0.87211    1.000
    N5823    N        0.90330    0.86448    0.87761    1.000
    Si5824   Si       0.75000    0.88579    0.84340    1.000
    N5825    N        0.78027    0.88994    0.87144    1.000
    N5826    N        0.85029    0.88863    0.84408    1.000
    N5827    N        0.85304    0.00462    0.85245    1.000
    N5828    N        0.93569    0.98484    0.86501    1.000
    N5829    N        0.89509    0.93901    0.83284    1.000
    Si5830   Si       0.97490    0.96660    0.86967    1.000
    Si5831   Si       0.90676    0.95313    0.87162    1.000
    N5832    N        0.98632    0.93586    0.84022    1.000
    N5833    N        0.81091    0.79485    0.91808    1.000
    N5834    N        0.83793    0.87170    0.90275    1.000
    N5835    N        0.74620    0.80611    0.90997    1.000
    Si5836   Si       0.82365    0.78913    0.87904    1.000
    Si5837   Si       0.95793    0.77819    0.89692    1.000
    N5838    N        0.95529    0.86485    0.92137    1.000
    Si5839   Si       0.97844    0.84938    0.88851    1.000
    N5840    N        0.91499    0.77945    0.88870    1.000
    N5841    N        0.96299    0.78522    0.93923    1.000
    N5842    N        0.79663    0.00222    0.88805    1.000
    Si5843   Si       0.78320    0.96486    0.90503    1.000
    N5844    N        0.81711    0.94305    0.88925    1.000
    Si5845   Si       0.84148    0.98234    0.88812    1.000
    N5846    N        0.74288    0.95282    0.89842    1.000
    Si5847   Si       0.82139    0.90317    0.87661    1.000
    Si5848   Si       0.95086    0.95168    0.92745    1.000
    N5849    N        0.93723    0.92859    0.89401    1.000
    Si5850   Si       0.92262    0.88912    0.90708    1.000
    N5851    N        0.87608    0.95535    0.90124    1.000
    N5852    N        0.98888    0.96546    0.90941    1.000
    Si5853   Si       0.86731    0.93266    0.93888    1.000
    N5854    N        0.84844    0.78138    0.97133    1.000
    N5855    N        0.78844    0.85368    0.95204    1.000
    N5856    N        0.77575    0.78932    0.97559    1.000
    Si5857   Si       0.75836    0.87563    0.97542    1.000
    Si5858   Si       0.82760    0.87073    0.94532    1.000
    N5859    N        0.86199    0.85039    0.96333    1.000
    Si5860   Si       0.77800    0.81176    0.93779    1.000
    Si5861   Si       0.83103    0.76029    0.93698    1.000
    Si5862   Si       0.86660    0.81646    0.98898    1.000
    Si5863   Si       0.93178    0.77367    0.96410    1.000
    N5864    N        0.90743    0.80009    0.98886    1.000
    N5865    N        0.93229    0.86138    0.98777    1.000
    Si5866   Si       0.89291    0.87912    0.97739    1.000
    Si5867   Si       0.96272    0.88235    0.96382    1.000
    N5868    N        0.75715    0.91459    0.95894    1.000
    Si5869   Si       0.79487    0.93378    0.97039    1.000
    N5870    N        0.78767    0.97110    0.94768    1.000
    N5871    N        0.82918    0.91376    0.95186    1.000
    Si5872   Si       0.86048    0.99877    0.96432    1.000
    N5873    N        0.82537    0.00362    0.99133    1.000
    Si5874   Si       0.78735    0.00763    0.97385    1.000
    Si5875   Si       0.97354    0.95195    0.99168    1.000
    N5876    N        0.89896    0.90165    0.94114    1.000
    N5877    N        0.96132    0.92631    0.95993    1.000
    N5878    N        0.93546    0.98897    0.94371    1.000
    N5879    N        0.87746    0.96052    0.96956    1.000
