# CIF file generated by openbabel 3.1.1, see https://openbabel.org
data_I
_chemical_name_common '3.01-82.aims'
_cell_length_a 39.8782
_cell_length_b 39.8782
_cell_length_c 39.8782
_cell_angle_alpha 90
_cell_angle_beta 90
_cell_angle_gamma 90
loop_
    _atom_site_label
    _atom_site_type_symbol
    _atom_site_fract_x
    _atom_site_fract_y
    _atom_site_fract_z
    _atom_site_occupancy
    Si0      Si       0.02819    0.03037    0.03624    1.000
    N1       N        0.02571    0.05797    0.07046    1.000
    Si2      Si       0.00411    0.09654    0.06765    1.000
    N3       N        0.02966    0.13011    0.05761    1.000
    Si4      Si       0.02882    0.13331    0.01281    1.000
    Si5      Si       0.03939    0.16260    0.08556    1.000
    N6       N        0.01923    0.19910    0.06981    1.000
    Si7      Si       0.02800    0.23565    0.09476    1.000
    N8       N        0.99357    0.15961    0.00560    1.000
    N9       N        0.01848    0.15814    0.12223    1.000
    N10      N        0.02952    0.02501    0.13381    1.000
    N11      N        0.02374    0.08898    0.15471    1.000
    N12      N        0.01430    0.03849    0.19936    1.000
    Si13     Si       0.99967    0.04900    0.15715    1.000
    Si14     Si       0.99924    0.12244    0.13773    1.000
    N15      N        0.04788    0.10962    0.22128    1.000
    N16      N        0.04134    0.22863    0.13641    1.000
    N17      N        0.02397    0.24944    0.24453    1.000
    Si18     Si       0.02325    0.19105    0.15128    1.000
    N19      N        0.99594    0.14720    0.23677    1.000
    Si20     Si       0.03614    0.15414    0.22020    1.000
    N21      N        0.04733    0.16925    0.18066    1.000
    N22      N        0.03868    0.06121    0.27779    1.000
    N23      N        0.01685    0.12721    0.35837    1.000
    Si24     Si       0.99539    0.05785    0.28381    1.000
    N25      N        0.04272    0.13139    0.28812    1.000
    Si26     Si       0.03034    0.21817    0.27459    1.000
    Si27     Si       0.00852    0.15776    0.27718    1.000
    Si28     Si       0.02985    0.16817    0.36358    1.000
    N29      N        0.99446    0.19737    0.28589    1.000
    N30      N        0.99516    0.19163    0.35821    1.000
    N31      N        0.04947    0.18613    0.25241    1.000
    N32      N        0.00389    0.12494    0.43017    1.000
    N33      N        0.00169    0.06605    0.39497    1.000
    N34      N        0.04481    0.09139    0.48750    1.000
    Si35     Si       0.00869    0.10746    0.47115    1.000
    Si36     Si       0.02512    0.10262    0.39545    1.000
    N37      N        0.99622    0.18755    0.45106    1.000
    N38      N        0.04301    0.17896    0.40217    1.000
    Si39     Si       0.02880    0.16212    0.43892    1.000
    N40      N        0.04740    0.23471    0.49245    1.000
    N41      N        0.02246    0.04548    0.54704    1.000
    N42      N        0.03735    0.10575    0.55380    1.000
    Si43     Si       0.03987    0.02797    0.58218    1.000
    Si44     Si       0.00136    0.08085    0.56353    1.000
    Si45     Si       0.02213    0.14545    0.53710    1.000
    N46      N        0.01321    0.24015    0.55211    1.000
    Si47     Si       0.02067    0.16162    0.60660    1.000
    N48      N        0.99828    0.15793    0.56832    1.000
    N49      N        0.02673    0.20363    0.61375    1.000
    Si50     Si       0.99534    0.22863    0.59104    1.000
    N51      N        0.00148    0.14087    0.49745    1.000
    N52      N        0.03939    0.06697    0.72029    1.000
    Si53     Si       0.03591    0.10242    0.69577    1.000
    Si54     Si       0.02213    0.04156    0.68933    1.000
    N55      N        0.02279    0.07956    0.66100    1.000
    N56      N        0.01172    0.01180    0.72274    1.000
    Si57     Si       0.00418    0.16409    0.67709    1.000
    N58      N        0.00417    0.25323    0.68393    1.000
    N59      N        0.00676    0.13260    0.70769    1.000
    N60      N        0.99852    0.14339    0.64020    1.000
    N61      N        0.04586    0.18483    0.67795    1.000
    N62      N        0.00623    0.11435    0.77358    1.000
    N63      N        0.02286    0.08083    0.83306    1.000
    Si64     Si       0.01373    0.02539    0.76513    1.000
    Si65     Si       0.99204    0.08611    0.80438    1.000
    Si66     Si       0.04528    0.13414    0.77259    1.000
    N67      N        0.04968    0.04402    0.78050    1.000
    Si68     Si       0.02738    0.10099    0.87171    1.000
    Si69     Si       0.00591    0.24144    0.76525    1.000
    Si70     Si       0.00970    0.18134    0.82313    1.000
    N71      N        0.01969    0.20551    0.85768    1.000
    N72      N        0.01070    0.20522    0.78761    1.000
    N73      N        0.04673    0.15818    0.81071    1.000
    Si74     Si       0.04099    0.04051    0.92550    1.000
    N75      N        0.01927    0.07419    0.90646    1.000
    N76      N        0.00454    0.02201    0.93839    1.000
    N77      N        0.02591    0.09560    0.99263    1.000
    N78      N        0.99755    0.13383    0.87356    1.000
    N79      N        0.01562    0.22065    0.97298    1.000
    N80      N        0.03509    0.17026    0.92477    1.000
    Si81     Si       0.04540    0.18988    0.96231    1.000
    Si82     Si       0.99374    0.15970    0.90976    1.000
    N83      N        0.99203    0.25479    0.90689    1.000
    N84      N        0.03480    0.32323    0.07151    1.000
    Si85     Si       0.03583    0.34216    0.11082    1.000
    Si86     Si       0.00607    0.36075    0.00461    1.000
    N87      N        0.00617    0.37646    0.11520    1.000
    N88      N        0.03924    0.33016    0.00473    1.000
    Si89     Si       0.99332    0.32535    0.05757    1.000
    N90      N        0.00987    0.45908    0.02707    1.000
    Si91     Si       0.02231    0.41486    0.10050    1.000
    Si92     Si       0.03450    0.42309    0.02277    1.000
    Si93     Si       0.03735    0.48243    0.00359    1.000
    N94      N        0.02430    0.49635    0.10379    1.000
    N95      N        0.04160    0.40648    0.06196    1.000
    N96      N        0.04084    0.34948    0.19336    1.000
    Si97     Si       0.02510    0.31195    0.17979    1.000
    N98      N        0.01520    0.31437    0.13755    1.000
    Si99     Si       0.01172    0.37598    0.21220    1.000
    N100     N        0.99041    0.30412    0.20655    1.000
    Si101    Si       0.01812    0.49861    0.14817    1.000
    N102     N        0.01562    0.41554    0.19355    1.000
    N103     N        0.99655    0.46742    0.23523    1.000
    Si104    Si       0.03924    0.45527    0.22735    1.000
    Si105    Si       0.02271    0.30029    0.35002    1.000
    N106     N        0.01558    0.37557    0.25452    1.000
    N107     N        0.03349    0.33822    0.36893    1.000
    N108     N        0.99697    0.37686    0.32332    1.000
    N109     N        0.02136    0.26050    0.36899    1.000
    N110     N        0.05179    0.31046    0.31957    1.000
    Si111    Si       0.01406    0.41464    0.33705    1.000
    N112     N        0.02924    0.42940    0.29834    1.000
    Si113    Si       0.00607    0.50183    0.26032    1.000
    Si114    Si       0.04503    0.39878    0.27454    1.000
    N115     N        0.99035    0.50526    0.30039    1.000
    Si116    Si       0.01334    0.50606    0.33722    1.000
    Si117    Si       0.02701    0.26574    0.47249    1.000
    Si118    Si       0.02136    0.35941    0.40496    1.000
    Si119    Si       0.00605    0.33234    0.47185    1.000
    N120     N        0.03274    0.33004    0.43674    1.000
    N121     N        0.00437    0.37045    0.49134    1.000
    N122     N        0.99723    0.49698    0.37644    1.000
    N123     N        0.03428    0.43873    0.46832    1.000
    Si124    Si       0.99758    0.45504    0.45474    1.000
    N125     N        0.99431    0.49894    0.45415    1.000
    N126     N        0.04615    0.39524    0.41571    1.000
    Si127    Si       0.01143    0.28340    0.54115    1.000
    N128     N        0.00103    0.33912    0.60821    1.000
    Si129    Si       0.04063    0.33679    0.58812    1.000
    N130     N        0.03937    0.36723    0.55771    1.000
    N131     N        0.04223    0.29913    0.56727    1.000
    N132     N        0.99668    0.26433    0.61463    1.000
    N133     N        0.01547    0.29887    0.49810    1.000
    Si134    Si       0.03665    0.38435    0.51779    1.000
    Si135    Si       0.04225    0.45566    0.51066    1.000
    N136     N        0.02117    0.49212    0.51947    1.000
    N137     N        0.02929    0.42332    0.53609    1.000
    Si138    Si       0.03438    0.40648    0.57726    1.000
    N139     N        0.00310    0.40929    0.60682    1.000
    N140     N        0.03146    0.30790    0.66502    1.000
    Si141    Si       0.00329    0.29577    0.69672    1.000
    N142     N        0.02130    0.29659    0.73550    1.000
    Si143    Si       0.02528    0.26663    0.64733    1.000
    N144     N        0.00070    0.38157    0.72604    1.000
    N145     N        0.01156    0.43359    0.67838    1.000
    Si146    Si       0.02914    0.40385    0.70297    1.000
    N147     N        0.01019    0.47626    0.73521    1.000
    N148     N        0.02231    0.50331    0.68005    1.000
    Si149    Si       0.00558    0.44289    0.63519    1.000
    N150     N        0.03966    0.47023    0.62441    1.000
    Si151    Si       0.99609    0.47184    0.69523    1.000
    Si152    Si       0.04017    0.50553    0.72230    1.000
    N153     N        0.02027    0.28894    0.85505    1.000
    N154     N        0.01103    0.34401    0.78763    1.000
    N155     N        0.00615    0.27417    0.79331    1.000
    Si156    Si       0.99701    0.30959    0.76901    1.000
    Si157    Si       0.04540    0.27451    0.81993    1.000
    Si158    Si       0.99472    0.38000    0.77152    1.000
    N159     N        0.00691    0.47761    0.80512    1.000
    N160     N        0.01624    0.40814    0.79619    1.000
    Si161    Si       0.98999    0.43832    0.81098    1.000
    Si162    Si       0.02806    0.27937    0.89802    1.000
    N163     N        0.02283    0.30927    0.92966    1.000
    Si164    Si       0.99044    0.33752    0.93662    1.000
    N165     N        0.99870    0.37986    0.93037    1.000
    Si166    Si       0.03352    0.46212    0.92866    1.000
    Si167    Si       0.03883    0.39044    0.94923    1.000
    N168     N        0.02618    0.39646    0.99099    1.000
    N169     N        0.04447    0.48490    0.89503    1.000
    N170     N        0.99624    0.44464    0.91792    1.000
    N171     N        0.02689    0.49099    0.96183    1.000
    N172     N        0.00858    0.54871    0.06263    1.000
    N173     N        0.02593    0.61856    0.07911    1.000
    Si174    Si       0.02604    0.54921    0.02302    1.000
    Si175    Si       0.02871    0.57605    0.08745    1.000
    N176     N        0.04380    0.58254    0.00277    1.000
    N177     N        0.99205    0.53539    0.99942    1.000
    N178     N        0.03608    0.74550    0.03463    1.000
    N179     N        0.00794    0.73949    0.10652    1.000
    Si180    Si       0.02383    0.65815    0.06072    1.000
    N181     N        0.04224    0.68207    0.09132    1.000
    Si182    Si       0.00388    0.75402    0.06525    1.000
    Si183    Si       0.03469    0.71112    0.12426    1.000
    Si184    Si       0.01488    0.62571    0.12047    1.000
    N185     N        0.00742    0.58356    0.12508    1.000
    Si186    Si       0.02929    0.55135    0.20853    1.000
    N187     N        0.00717    0.53329    0.17408    1.000
    N188     N        0.00283    0.54142    0.24146    1.000
    Si189    Si       0.02998    0.63273    0.19415    1.000
    N190     N        0.04381    0.59167    0.20749    1.000
    N191     N        0.00525    0.72332    0.22814    1.000
    N192     N        0.04562    0.66127    0.22418    1.000
    N193     N        0.01560    0.69831    0.16068    1.000
    N194     N        0.04356    0.63390    0.15196    1.000
    Si195    Si       0.02494    0.72901    0.18948    1.000
    N196     N        0.01860    0.55129    0.34287    1.000
    Si197    Si       0.03407    0.57597    0.30597    1.000
    N198     N        0.99155    0.58090    0.29546    1.000
    N199     N        0.99450    0.66068    0.26704    1.000
    Si200    Si       0.03674    0.73946    0.29275    1.000
    Si201    Si       0.02308    0.68652    0.25097    1.000
    N202     N        0.99360    0.73982    0.28922    1.000
    N203     N        0.04481    0.75192    0.33189    1.000
    N204     N        0.01882    0.54954    0.41660    1.000
    Si205    Si       0.00400    0.52022    0.48919    1.000
    Si206    Si       0.04112    0.55416    0.37920    1.000
    N207     N        0.02963    0.55429    0.48601    1.000
    Si208    Si       0.04633    0.56567    0.44657    1.000
    Si209    Si       0.04293    0.63112    0.41059    1.000
    N210     N        0.99901    0.63398    0.40352    1.000
    Si211    Si       0.04335    0.74938    0.49583    1.000
    Si212    Si       0.99571    0.66244    0.43604    1.000
    N213     N        0.03953    0.67078    0.43738    1.000
    N214     N        0.01720    0.75160    0.45944    1.000
    Si215    Si       0.01397    0.55550    0.59180    1.000
    N216     N        0.03799    0.56543    0.55761    1.000
    N217     N        0.00325    0.58909    0.61515    1.000
    N218     N        0.99169    0.51891    0.58618    1.000
    N219     N        0.02726    0.64007    0.52205    1.000
    N220     N        0.00504    0.68761    0.57286    1.000
    N221     N        0.02131    0.73169    0.52662    1.000
    Si222    Si       0.03767    0.66720    0.55639    1.000
    N223     N        0.02222    0.75066    0.58839    1.000
    Si224    Si       0.03387    0.58027    0.64542    1.000
    N225     N        0.02463    0.54573    0.73425    1.000
    N226     N        0.01787    0.59023    0.68375    1.000
    Si227    Si       0.99776    0.57608    0.71802    1.000
    Si228    Si       0.02345    0.72299    0.73399    1.000
    Si229    Si       0.01591    0.69420    0.65833    1.000
    N230     N        0.00264    0.70959    0.69743    1.000
    N231     N        0.01924    0.65312    0.64296    1.000
    N232     N        0.03445    0.52596    0.83723    1.000
    Si233    Si       0.01782    0.61015    0.78499    1.000
    N234     N        0.00400    0.59196    0.82452    1.000
    Si235    Si       0.04194    0.56686    0.82566    1.000
    Si236    Si       0.99574    0.50731    0.83847    1.000
    N237     N        0.99342    0.60399    0.74997    1.000
    N238     N        0.99204    0.69549    0.84039    1.000
    N239     N        0.03595    0.64858    0.79396    1.000
    Si240    Si       0.00343    0.67681    0.80312    1.000
    N241     N        0.00224    0.69977    0.76494    1.000
    Si242    Si       0.99628    0.59050    0.90694    1.000
    N243     N        0.02755    0.61898    0.89643    1.000
    N244     N        0.01143    0.56878    0.94272    1.000
    Si245    Si       0.00302    0.52887    0.95653    1.000
    Si246    Si       0.01801    0.59987    0.97378    1.000
    N247     N        0.00004    0.68550    0.91997    1.000
    N248     N        0.03542    0.63717    0.95923    1.000
    Si249    Si       0.03209    0.65508    0.92035    1.000
    N250     N        0.02897    0.74046    0.88897    1.000
    Si251    Si       0.99873    0.70948    0.88240    1.000
    N252     N        0.03619    0.74513    0.96296    1.000
    Si253    Si       0.01133    0.74871    0.99753    1.000
    N254     N        0.98925    0.71114    0.98910    1.000
    Si255    Si       0.02071    0.82383    0.01295    1.000
    Si256    Si       0.03331    0.85888    0.11557    1.000
    N257     N        0.99847    0.85216    0.03918    1.000
    N258     N        0.00187    0.79561    0.07975    1.000
    N259     N        0.99743    0.79024    0.99603    1.000
    N260     N        0.02996    0.98721    0.04540    1.000
    N261     N        0.01571    0.91745    0.03280    1.000
    Si262    Si       0.00784    0.95881    0.02393    1.000
    N263     N        0.04069    0.89409    0.09043    1.000
    N264     N        0.03797    0.95898    0.11230    1.000
    N265     N        0.98851    0.79315    0.24174    1.000
    Si266    Si       0.00167    0.77939    0.12499    1.000
    N267     N        0.02392    0.82037    0.13869    1.000
    Si268    Si       0.02710    0.87363    0.19503    1.000
    N269     N        0.99786    0.84152    0.19066    1.000
    N270     N        0.02014    0.76370    0.16412    1.000
    Si271    Si       0.04956    0.79670    0.16610    1.000
    Si272    Si       0.02973    0.80513    0.24576    1.000
    N273     N        0.99798    0.90436    0.20384    1.000
    N274     N        0.03882    0.88493    0.15095    1.000
    Si275    Si       0.02619    0.98203    0.14817    1.000
    N276     N        0.99359    0.96807    0.23689    1.000
    Si277    Si       0.00600    0.83577    0.35029    1.000
    N278     N        0.03857    0.84283    0.26165    1.000
    N279     N        0.99273    0.86791    0.32000    1.000
    Si280    Si       0.03566    0.86577    0.29943    1.000
    N281     N        0.99042    0.79562    0.35230    1.000
    Si282    Si       0.01091    0.75841    0.35884    1.000
    N283     N        0.04606    0.83801    0.33138    1.000
    Si284    Si       0.99975    0.98816    0.31397    1.000
    Si285    Si       0.99650    0.91200    0.32818    1.000
    N286     N        0.03598    0.90881    0.30753    1.000
    N287     N        0.03815    0.98611    0.29595    1.000
    Si288    Si       0.03264    0.97065    0.25482    1.000
    N289     N        0.99815    0.00137    0.35461    1.000
    N290     N        0.01017    0.92746    0.36806    1.000
    N291     N        0.03860    0.76287    0.39262    1.000
    Si292    Si       0.03693    0.85455    0.41695    1.000
    N293     N        0.00407    0.85461    0.38931    1.000
    N294     N        0.02455    0.82086    0.44227    1.000
    Si295    Si       0.01640    0.81850    0.48516    1.000
    Si296    Si       0.03842    0.77809    0.43364    1.000
    N297     N        0.04086    0.89791    0.42902    1.000
    Si298    Si       0.99705    0.96646    0.38332    1.000
    Si299    Si       0.04180    0.92567    0.39582    1.000
    N300     N        0.02893    0.96448    0.41185    1.000
    Si301    Si       0.04521    0.98828    0.44567    1.000
    N302     N        0.01351    0.99190    0.47575    1.000
    N303     N        0.02025    0.92202    0.49399    1.000
    N304     N        0.02771    0.85468    0.50578    1.000
    N305     N        0.04865    0.79311    0.49790    1.000
    N306     N        0.00940    0.00606    0.60268    1.000
    N307     N        0.01852    0.88891    0.61553    1.000
    Si308    Si       0.01355    0.89241    0.52513    1.000
    Si309    Si       0.00970    0.96698    0.58606    1.000
    N310     N        0.00334    0.97233    0.54442    1.000
    Si311    Si       0.99871    0.95862    0.50361    1.000
    N312     N        0.04704    0.88898    0.55433    1.000
    N313     N        0.04957    0.94771    0.59004    1.000
    N314     N        0.99441    0.82672    0.73397    1.000
    Si315    Si       0.01637    0.84167    0.69795    1.000
    N316     N        0.02825    0.79599    0.63230    1.000
    N317     N        0.03393    0.87938    0.69002    1.000
    Si318    Si       0.01896    0.90848    0.65481    1.000
    Si319    Si       0.02961    0.97194    0.70854    1.000
    N320     N        0.02342    0.95162    0.66950    1.000
    N321     N        0.00377    0.94641    0.73195    1.000
    N322     N        0.02642    0.82198    0.79310    1.000
    Si323    Si       0.03082    0.80778    0.83569    1.000
    N324     N        0.00324    0.86888    0.84774    1.000
    Si325    Si       0.03532    0.77880    0.77986    1.000
    N326     N        0.99619    0.80026    0.85870    1.000
    N327     N        0.04278    0.76776    0.82189    1.000
    N328     N        0.00935    0.76119    0.74907    1.000
    Si329    Si       0.98676    0.83633    0.77556    1.000
    N330     N        0.98291    0.87782    0.77926    1.000
    Si331    Si       0.01484    0.88493    0.80896    1.000
    Si332    Si       0.99879    0.95070    0.77260    1.000
    N333     N        0.02370    0.92928    0.79985    1.000
    N334     N        0.00958    0.96702    0.86024    1.000
    N335     N        0.00989    0.98889    0.78971    1.000
    Si336    Si       0.03530    0.97655    0.82504    1.000
    Si337    Si       0.98407    0.81539    0.89656    1.000
    Si338    Si       0.03581    0.86174    0.87789    1.000
    Si339    Si       0.02351    0.76538    0.92576    1.000
    N340     N        0.00965    0.84862    0.90992    1.000
    Si341    Si       0.00708    0.86095    0.95010    1.000
    N342     N        0.03392    0.84856    0.97976    1.000
    N343     N        0.05266    0.79546    0.91916    1.000
    Si344    Si       0.02852    0.93128    0.96252    1.000
    N345     N        0.00988    0.96621    0.98139    1.000
    N346     N        0.99716    0.90146    0.96042    1.000
    Si347    Si       0.01494    0.93362    0.88973    1.000
    N348     N        0.03490    0.95033    0.92542    1.000
    N349     N        0.04693    0.90338    0.87855    1.000
    N350     N        0.06520    0.04184    0.01634    1.000
    Si351    Si       0.09597    0.02250    0.03987    1.000
    N352     N        0.08768    0.06508    0.11695    1.000
    N353     N        0.07904    0.01257    0.08133    1.000
    Si354    Si       0.05103    0.04652    0.10325    1.000
    N355     N        0.06471    0.24722    0.07418    1.000
    N356     N        0.08082    0.17733    0.09535    1.000
    Si357    Si       0.09043    0.21198    0.07261    1.000
    N358     N        0.10261    0.19343    0.03364    1.000
    Si359    Si       0.05812    0.08958    0.18278    1.000
    N360     N        0.09236    0.11451    0.16765    1.000
    N361     N        0.08121    0.05289    0.18948    1.000
    Si362    Si       0.05302    0.02179    0.20042    1.000
    N363     N        0.08164    0.23090    0.20738    1.000
    N364     N        0.10245    0.16277    0.22004    1.000
    Si365    Si       0.06805    0.24733    0.16832    1.000
    Si366    Si       0.08944    0.15578    0.17868    1.000
    N367     N        0.10694    0.25395    0.14923    1.000
    Si368    Si       0.08879    0.19934    0.23724    1.000
    N369     N        0.09148    0.03110    0.31323    1.000
    N370     N        0.09749    0.09714    0.26634    1.000
    Si371    Si       0.05798    0.02501    0.28626    1.000
    N372     N        0.09823    0.11700    0.33930    1.000
    Si373    Si       0.05640    0.09701    0.26303    1.000
    Si374    Si       0.10173    0.01862    0.35233    1.000
    Si375    Si       0.07628    0.14325    0.31217    1.000
    N376     N        0.06006    0.17802    0.33320    1.000
    Si377    Si       0.08138    0.21677    0.33336    1.000
    N378     N        0.05958    0.23783    0.30175    1.000
    N379     N        0.10859    0.15918    0.28691    1.000
    Si380    Si       0.08447    0.06198    0.41824    1.000
    N381     N        0.06805    0.09687    0.39846    1.000
    N382     N        0.06595    0.02387    0.42863    1.000
    Si383    Si       0.08114    0.11482    0.47890    1.000
    N384     N        0.10061    0.08492    0.45239    1.000
    Si385    Si       0.10186    0.12007    0.38169    1.000
    N386     N        0.08486    0.22984    0.37704    1.000
    Si387    Si       0.08075    0.23490    0.46657    1.000
    N388     N        0.06573    0.14619    0.45446    1.000
    Si389    Si       0.08437    0.19308    0.40279    1.000
    N390     N        0.10384    0.21297    0.43597    1.000
    Si391    Si       0.06700    0.10330    0.58680    1.000
    N392     N        0.09101    0.06339    0.53659    1.000
    N393     N        0.09713    0.12700    0.51845    1.000
    N394     N        0.05842    0.06448    0.60269    1.000
    Si395    Si       0.10403    0.02226    0.53829    1.000
    Si396    Si       0.04977    0.07273    0.52519    1.000
    N397     N        0.05809    0.13976    0.60951    1.000
    Si398    Si       0.09269    0.16823    0.53390    1.000
    N399     N        0.08561    0.23213    0.55461    1.000
    Si400    Si       0.10039    0.15483    0.60547    1.000
    N401     N        0.05159    0.17632    0.53746    1.000
    Si402    Si       0.04895    0.22108    0.53435    1.000
    Si403    Si       0.10679    0.22173    0.59206    1.000
    N404     N        0.10181    0.03793    0.73321    1.000
    N405     N        0.07307    0.12393    0.69279    1.000
    N406     N        0.06107    0.03123    0.67274    1.000
    Si407    Si       0.06474    0.06437    0.64610    1.000
    Si408    Si       0.09395    0.01294    0.69907    1.000
    N409     N        0.10257    0.08251    0.64998    1.000
    N410     N        0.06371    0.24973    0.64991    1.000
    N411     N        0.09751    0.19638    0.62829    1.000
    Si412    Si       0.07137    0.16516    0.70675    1.000
    Si413    Si       0.05696    0.20818    0.64333    1.000
    N414     N        0.07702    0.10326    0.76484    1.000
    N415     N        0.08769    0.06424    0.84478    1.000
    Si416    Si       0.09909    0.10311    0.85348    1.000
    Si417    Si       0.07016    0.06541    0.74844    1.000
    Si418    Si       0.05296    0.05257    0.82151    1.000
    Si419    Si       0.08712    0.02496    0.87012    1.000
    N420     N        0.10910    0.12995    0.82000    1.000
    N421     N        0.05314    0.24044    0.75911    1.000
    N422     N        0.07210    0.24511    0.83472    1.000
    Si423    Si       0.08715    0.16690    0.82714    1.000
    N424     N        0.09598    0.19945    0.79788    1.000
    Si425    Si       0.05466    0.20022    0.77600    1.000
    Si426    Si       0.06104    0.21942    0.86710    1.000
    N427     N        0.08059    0.18141    0.86974    1.000
    N428     N        0.06077    0.16923    0.74827    1.000
    N429     N        0.06590    0.11941    0.87790    1.000
    N430     N        0.07277    0.06189    0.94848    1.000
    Si431    Si       0.06225    0.07379    0.98728    1.000
    N432     N        0.06394    0.00971    0.90623    1.000
    N433     N        0.09642    0.10332    0.99769    1.000
    Si434    Si       0.10819    0.20564    0.99262    1.000
    Si435    Si       0.07081    0.15441    0.90154    1.000
    Si436    Si       0.09813    0.14192    0.97633    1.000
    N437     N        0.08227    0.21188    0.95770    1.000
    N438     N        0.09864    0.14326    0.93230    1.000
    Si439    Si       0.08382    0.24962    0.93728    1.000
    N440     N        0.05900    0.24675    0.90140    1.000
    N441     N        0.05788    0.15720    0.98879    1.000
    Si442    Si       0.06605    0.32816    0.03800    1.000
    N443     N        0.07362    0.36142    0.10333    1.000
    N444     N        0.09264    0.36370    0.03695    1.000
    N445     N        0.09339    0.29664    0.03300    1.000
    Si446    Si       0.09962    0.27419    0.06985    1.000
    Si447    Si       0.08234    0.38978    0.06920    1.000
    N448     N        0.06687    0.44928    0.00844    1.000
    N449     N        0.09627    0.48474    0.09581    1.000
    Si450    Si       0.09553    0.44523    0.11292    1.000
    Si451    Si       0.08445    0.34940    0.18610    1.000
    Si452    Si       0.05989    0.26568    0.22799    1.000
    N453     N        0.10204    0.32299    0.15701    1.000
    N454     N        0.05094    0.27971    0.18890    1.000
    N455     N        0.06366    0.42261    0.24273    1.000
    N456     N        0.05702    0.42956    0.12644    1.000
    N457     N        0.08810    0.39245    0.17481    1.000
    N458     N        0.06111    0.46202    0.19092    1.000
    Si459    Si       0.05565    0.42190    0.17220    1.000
    Si460    Si       0.08162    0.50016    0.18616    1.000
    Si461    Si       0.07352    0.27773    0.30019    1.000
    N462     N        0.07183    0.37226    0.29519    1.000
    N463     N        0.08219    0.28698    0.25867    1.000
    Si464    Si       0.05938    0.35479    0.33562    1.000
    N465     N        0.10372    0.34655    0.34558    1.000
    N466     N        0.10579    0.26956    0.32861    1.000
    Si467    Si       0.08454    0.49179    0.35707    1.000
    Si468    Si       0.05761    0.46232    0.29274    1.000
    N469     N        0.09859    0.45181    0.28636    1.000
    Si470    Si       0.10680    0.42932    0.25167    1.000
    N471     N        0.05279    0.40127    0.35121    1.000
    N472     N        0.04920    0.48783    0.25898    1.000
    N473     N        0.05156    0.48729    0.32859    1.000
    N474     N        0.05815    0.26582    0.44012    1.000
    Si475    Si       0.07176    0.30672    0.43164    1.000
    N476     N        0.08292    0.29606    0.39012    1.000
    N477     N        0.10101    0.31849    0.46142    1.000
    Si478    Si       0.10514    0.35498    0.48417    1.000
    N479     N        0.06995    0.38219    0.48968    1.000
    Si480    Si       0.05736    0.25908    0.39523    1.000
    Si481    Si       0.06083    0.40831    0.45396    1.000
    Si482    Si       0.07865    0.41361    0.38648    1.000
    N483     N        0.08814    0.45848    0.38425    1.000
    N484     N        0.09622    0.43179    0.44466    1.000
    N485     N        0.06918    0.35065    0.61628    1.000
    Si486    Si       0.09344    0.38777    0.61359    1.000
    N487     N        0.06836    0.42103    0.59733    1.000
    Si488    Si       0.07963    0.46496    0.60553    1.000
    N489     N        0.08182    0.49690    0.57412    1.000
    N490     N        0.08455    0.46146    0.51404    1.000
    Si491    Si       0.10315    0.49366    0.53624    1.000
    Si492    Si       0.06317    0.33691    0.65630    1.000
    N493     N        0.09942    0.31202    0.66695    1.000
    N494     N        0.09905    0.29444    0.73898    1.000
    Si495    Si       0.10331    0.26872    0.65413    1.000
    N496     N        0.10510    0.36374    0.71955    1.000
    N497     N        0.04939    0.37199    0.68047    1.000
    N498     N        0.09193    0.50161    0.63779    1.000
    Si499    Si       0.04895    0.50600    0.64797    1.000
    Si500    Si       0.08688    0.39104    0.69070    1.000
    N501     N        0.06803    0.42038    0.71747    1.000
    N502     N        0.06551    0.30384    0.79351    1.000
    N503     N        0.06559    0.35158    0.84760    1.000
    N504     N        0.07086    0.37660    0.78412    1.000
    Si505    Si       0.09984    0.37753    0.86108    1.000
    Si506    Si       0.05231    0.34356    0.80637    1.000
    Si507    Si       0.05799    0.28262    0.75359    1.000
    N508     N        0.08447    0.41564    0.84220    1.000
    N509     N        0.08400    0.48315    0.83432    1.000
    Si510    Si       0.05825    0.40971    0.80613    1.000
    N511     N        0.06532    0.44591    0.78035    1.000
    Si512    Si       0.05409    0.48304    0.79934    1.000
    Si513    Si       0.09294    0.43980    0.74819    1.000
    N514     N        0.07533    0.28047    0.96757    1.000
    N515     N        0.06788    0.35700    0.95161    1.000
    Si516    Si       0.05099    0.31704    0.96510    1.000
    N517     N        0.05763    0.42699    0.93451    1.000
    N518     N        0.10425    0.38994    0.90304    1.000
    Si519    Si       0.09894    0.42935    0.91828    1.000
    N520     N        0.06604    0.55520    0.09797    1.000
    Si521    Si       0.08583    0.59530    0.00814    1.000
    N522     N        0.05587    0.51871    0.01820    1.000
    N523     N        0.09003    0.60086    0.04961    1.000
    Si524    Si       0.09906    0.52700    0.01378    1.000
    Si525    Si       0.10068    0.57115    0.07761    1.000
    Si526    Si       0.06487    0.51294    0.10741    1.000
    Si527    Si       0.08570    0.68434    0.09819    1.000
    N528     N        0.10298    0.64803    0.11503    1.000
    Si529    Si       0.09671    0.75669    0.11848    1.000
    N530     N        0.04449    0.65973    0.02373    1.000
    N531     N        0.09452    0.76032    1.00000    1.000
    N532     N        0.06810    0.53256    0.21394    1.000
    Si533    Si       0.08815    0.58441    0.21045    1.000
    N534     N        0.10376    0.61929    0.23323    1.000
    N535     N        0.06302    0.51018    0.14946    1.000
    N536     N        0.10438    0.60009    0.17040    1.000
    Si537    Si       0.09051    0.65841    0.22363    1.000
    Si538    Si       0.09366    0.70979    0.17358    1.000
    Si539    Si       0.08675    0.63593    0.15268    1.000
    N540     N        0.06745    0.73201    0.19989    1.000
    N541     N        0.09595    0.66727    0.18087    1.000
    N542     N        0.07963    0.71649    0.12985    1.000
    Si543    Si       0.07803    0.61536    0.35518    1.000
    Si544    Si       0.07546    0.52418    0.25601    1.000
    N545     N        0.06232    0.55908    0.27785    1.000
    N546     N        0.05198    0.61035    0.32159    1.000
    Si547    Si       0.09680    0.70047    0.28384    1.000
    N548     N        0.05298    0.70127    0.28112    1.000
    Si549    Si       0.07247    0.75602    0.36535    1.000
    N550     N        0.09947    0.72080    0.36616    1.000
    N551     N        0.07516    0.52845    0.37860    1.000
    N552     N        0.08374    0.54253    0.44485    1.000
    N553     N        0.05612    0.59347    0.38613    1.000
    Si554    Si       0.05702    0.62870    0.48760    1.000
    N555     N        0.04927    0.60800    0.44969    1.000
    Si556    Si       0.10556    0.53984    0.40719    1.000
    N557     N        0.07093    0.65146    0.37911    1.000
    N558     N        0.07723    0.73034    0.47700    1.000
    Si559    Si       0.07315    0.69097    0.45701    1.000
    Si560    Si       0.10210    0.68144    0.38797    1.000
    N561     N        0.08339    0.66221    0.48653    1.000
    Si562    Si       0.08171    0.52999    0.60412    1.000
    N563     N        0.07519    0.59701    0.51460    1.000
    N564     N        0.09070    0.52997    0.51373    1.000
    Si565    Si       0.05741    0.55492    0.51968    1.000
    N566     N        0.04982    0.63419    0.58066    1.000
    Si567    Si       0.04659    0.60722    0.54712    1.000
    N568     N        0.07068    0.69353    0.54843    1.000
    N569     N        0.08299    0.73392    0.59697    1.000
    Si570    Si       0.10437    0.67937    0.52073    1.000
    Si571    Si       0.05025    0.73070    0.56107    1.000
    N572     N        0.07976    0.75898    0.54010    1.000
    Si573    Si       0.05219    0.75811    0.62058    1.000
    N574     N        0.09835    0.57278    0.73724    1.000
    N575     N        0.06701    0.60377    0.63795    1.000
    N576     N        0.07971    0.51599    0.70400    1.000
    N577     N        0.04472    0.54320    0.62317    1.000
    Si578    Si       0.05687    0.64384    0.62177    1.000
    N579     N        0.04694    0.72275    0.64770    1.000
    N580     N        0.09067    0.66940    0.62869    1.000
    Si581    Si       0.09745    0.68692    0.74191    1.000
    N582     N        0.08739    0.64712    0.73153    1.000
    N583     N        0.06553    0.71288    0.73147    1.000
    Si584    Si       0.08878    0.71157    0.63385    1.000
    N585     N        0.06825    0.58269    0.85715    1.000
    Si586    Si       0.06296    0.55307    0.75466    1.000
    N587     N        0.06157    0.51223    0.76870    1.000
    N588     N        0.04941    0.58027    0.78642    1.000
    Si589    Si       0.10793    0.56860    0.87029    1.000
    Si590    Si       0.06402    0.50856    0.86523    1.000
    Si591    Si       0.07997    0.64837    0.80440    1.000
    N592     N        0.08024    0.64794    0.84795    1.000
    N593     N        0.08057    0.71351    0.84701    1.000
    N594     N        0.09568    0.68549    0.78608    1.000
    Si595    Si       0.05941    0.74818    0.85908    1.000
    Si596    Si       0.07068    0.62105    0.88185    1.000
    N597     N        0.09856    0.52908    0.88368    1.000
    N598     N        0.09751    0.63168    0.98750    1.000
    Si599    Si       0.09302    0.68016    0.87258    1.000
    N600     N        0.07160    0.66734    0.90796    1.000
    N601     N        0.08185    0.69307    0.97110    1.000
    Si602    Si       0.06335    0.65618    0.98592    1.000
    Si603    Si       0.07802    0.73669    0.96666    1.000
    N604     N        0.10416    0.73477    0.93098    1.000
    Si605    Si       0.08482    0.83746    0.05157    1.000
    N606     N        0.07038    0.83663    0.09349    1.000
    N607     N        0.07282    0.87475    0.03234    1.000
    N608     N        0.05793    0.80946    0.03191    1.000
    Si609    Si       0.07410    0.77050    0.03695    1.000
    N610     N        0.09374    0.75871    0.07418    1.000
    N611     N        0.07876    0.93906    0.05883    1.000
    Si612    Si       0.05866    0.97416    0.07654    1.000
    Si613    Si       0.05277    0.90552    0.05251    1.000
    N614     N        0.10592    0.86198    0.14465    1.000
    Si615    Si       0.10201    0.82609    0.12289    1.000
    N616     N        0.08424    0.78968    0.14111    1.000
    N617     N        0.05573    0.80052    0.20933    1.000
    N618     N        0.06877    0.87628    0.20664    1.000
    Si619    Si       0.07222    0.76461    0.22731    1.000
    Si620    Si       0.08020    0.85332    0.24257    1.000
    Si621    Si       0.05016    0.91955    0.12589    1.000
    N622     N        0.08655    0.92962    0.14935    1.000
    Si623    Si       0.09576    0.96772    0.16791    1.000
    N624     N        0.05648    0.98181    0.17956    1.000
    N625     N        0.06340    0.00618    0.24154    1.000
    Si626    Si       0.09013    0.89113    0.17068    1.000
    Si627    Si       0.09751    0.97733    0.24112    1.000
    Si628    Si       0.08910    0.82366    0.33701    1.000
    N629     N        0.09512    0.79319    0.36728    1.000
    N630     N        0.08725    0.87755    0.28107    1.000
    N631     N        0.04964    0.77187    0.26534    1.000
    Si632    Si       0.07340    0.91808    0.28857    1.000
    N633     N        0.06897    0.94388    0.25309    1.000
    Si634    Si       0.10425    0.94484    0.35556    1.000
    N635     N        0.10480    0.93893    0.31180    1.000
    N636     N        0.07733    0.84865    0.40280    1.000
    Si637    Si       0.10081    0.81200    0.40830    1.000
    N638     N        0.08281    0.78226    0.43407    1.000
    Si639    Si       0.10100    0.87797    0.38348    1.000
    Si640    Si       0.10466    0.76171    0.46576    1.000
    N641     N        0.08305    0.89483    0.49347    1.000
    N642     N        0.07424    0.95543    0.45613    1.000
    Si643    Si       0.09680    0.00131    0.41006    1.000
    Si644    Si       0.05414    0.91702    0.46820    1.000
    N645     N        0.07970    0.91540    0.37755    1.000
    N646     N        0.09038    0.98171    0.37088    1.000
    Si647    Si       0.08494    0.79612    0.52119    1.000
    N648     N        0.09281    0.83452    0.54098    1.000
    Si649    Si       0.06612    0.86425    0.52213    1.000
    Si650    Si       0.08804    0.96999    0.59081    1.000
    Si651    Si       0.05740    0.90597    0.59737    1.000
    N652     N        0.10394    0.89578    0.59569    1.000
    N653     N        0.10171    0.99824    0.50013    1.000
    N654     N        0.07709    0.00723    0.56938    1.000
    N655     N        0.04880    0.81361    0.69347    1.000
    Si656    Si       0.07314    0.88182    0.67328    1.000
    Si657    Si       0.08052    0.80717    0.72164    1.000
    Si658    Si       0.06463    0.81355    0.65326    1.000
    N659     N        0.09050    0.78329    0.63733    1.000
    N660     N        0.08791    0.85013    0.64620    1.000
    N661     N        0.07983    0.85065    0.73921    1.000
    Si662    Si       0.10480    0.88672    0.73899    1.000
    N663     N        0.07340    0.97451    0.70195    1.000
    Si664    Si       0.06447    0.95726    0.65983    1.000
    N665     N        0.09569    0.97273    0.63292    1.000
    N666     N        0.06514    0.91534    0.64559    1.000
    Si667    Si       0.06526    0.84024    0.77807    1.000
    N668     N        0.06045    0.83232    0.85703    1.000
    Si669    Si       0.08641    0.85986    0.83399    1.000
    N670     N        0.07293    0.79202    0.76113    1.000
    N671     N        0.05797    0.87765    0.80299    1.000
    N672     N        0.10431    0.83394    0.80252    1.000
    N673     N        0.07889    0.95433    0.82105    1.000
    Si674    Si       0.06631    0.92055    0.79701    1.000
    N675     N        0.08813    0.92068    0.75942    1.000
    N676     N        0.05112    0.01484    0.84184    1.000
    N677     N        0.09140    0.77570    0.87181    1.000
    Si678    Si       0.08099    0.81669    0.89369    1.000
    N679     N        0.07989    0.85989    0.91126    1.000
    Si680    Si       0.07039    0.87281    0.98914    1.000
    N681     N        0.10518    0.85061    0.97543    1.000
    N682     N        0.09447    0.94758    0.89074    1.000
    Si683    Si       0.10876    0.92345    0.96336    1.000
    N684     N        0.10067    0.96708    0.95533    1.000
    Si685    Si       0.08918    0.90355    0.89344    1.000
    N686     N        0.06774    0.91197    0.97063    1.000
    Si687    Si       0.07436    0.97053    0.91945    1.000
    N688     N        0.12568    0.05325    0.04184    1.000
    N689     N        0.14803    0.02631    0.09789    1.000
    N690     N        0.13169    0.12201    0.11018    1.000
    Si691    Si       0.12711    0.07300    0.00305    1.000
    Si692    Si       0.10801    0.02506    0.11357    1.000
    Si693    Si       0.16618    0.13308    0.08707    1.000
    N694     N        0.16114    0.13231    0.04290    1.000
    N695     N        0.14929    0.17752    0.08452    1.000
    Si696    Si       0.14179    0.17275    0.03864    1.000
    N697     N        0.12593    0.23854    0.07681    1.000
    Si698    Si       0.11693    0.16268    0.11214    1.000
    Si699    Si       0.16500    0.21867    0.08111    1.000
    N700     N        0.12733    0.24392    0.99920    1.000
    Si701    Si       0.11479    0.09263    0.13708    1.000
    Si702    Si       0.12522    0.03673    0.18351    1.000
    N703     N        0.14239    0.06203    0.15045    1.000
    N704     N        0.13551    0.04750    0.22709    1.000
    N705     N        0.15418    0.11312    0.24168    1.000
    Si706    Si       0.15452    0.24101    0.23362    1.000
    N707     N        0.11433    0.18008    0.15180    1.000
    N708     N        0.15580    0.22610    0.19294    1.000
    Si709    Si       0.13272    0.21998    0.15726    1.000
    N710     N        0.16759    0.22154    0.13061    1.000
    N711     N        0.15405    0.05686    0.28962    1.000
    Si712    Si       0.13500    0.07773    0.25848    1.000
    Si713    Si       0.13338    0.01957    0.29835    1.000
    N714     N        0.14848    0.01488    0.34197    1.000
    Si715    Si       0.11590    0.13494    0.25125    1.000
    N716     N        0.12722    0.20733    0.33237    1.000
    Si717    Si       0.13479    0.19245    0.29279    1.000
    Si718    Si       0.13087    0.24716    0.35850    1.000
    N719     N        0.12506    0.21587    0.25802    1.000
    Si720    Si       0.14720    0.18098    0.36255    1.000
    Si721    Si       0.15801    0.04381    0.37575    1.000
    N722     N        0.13833    0.10560    0.40251    1.000
    Si723    Si       0.14061    0.09667    0.44468    1.000
    N724     N        0.11400    0.04013    0.38996    1.000
    N725     N        0.14834    0.13014    0.47229    1.000
    Si726    Si       0.16712    0.01907    0.44290    1.000
    Si727    Si       0.14716    0.17319    0.48622    1.000
    N728     N        0.11207    0.16266    0.38422    1.000
    N729     N        0.15957    0.21639    0.38769    1.000
    Si730    Si       0.14477    0.22436    0.42868    1.000
    N731     N        0.11044    0.25647    0.49018    1.000
    N732     N        0.14615    0.02472    0.54823    1.000
    Si733    Si       0.11828    0.09741    0.54226    1.000
    N734     N        0.15996    0.09159    0.53078    1.000
    N735     N        0.11030    0.11058    0.58598    1.000
    Si736    Si       0.13245    0.09724    0.61949    1.000
    Si737    Si       0.11865    0.23307    0.52527    1.000
    N738     N        0.11556    0.19323    0.50632    1.000
    N739     N        0.15799    0.24603    0.53557    1.000
    N740     N        0.11200    0.17874    0.57235    1.000
    N741     N        0.12425    0.25594    0.61437    1.000
    N742     N        0.14665    0.11544    0.70381    1.000
    Si743    Si       0.11290    0.11632    0.67598    1.000
    Si744    Si       0.16861    0.02019    0.69540    1.000
    N745     N        0.13028    0.25693    0.68605    1.000
    Si746    Si       0.12901    0.18070    0.65675    1.000
    N747     N        0.11294    0.17356    0.69679    1.000
    Si748    Si       0.14931    0.15772    0.72082    1.000
    N749     N        0.12745    0.14078    0.63985    1.000
    Si750    Si       0.15988    0.22697    0.70231    1.000
    N751     N        0.15615    0.20834    0.73986    1.000
    N752     N        0.14393    0.08012    0.78121    1.000
    Si753    Si       0.11711    0.11600    0.77901    1.000
    Si754    Si       0.14061    0.04336    0.75578    1.000
    N755     N        0.16011    0.01363    0.77806    1.000
    Si756    Si       0.12970    0.19192    0.77293    1.000
    N757     N        0.13360    0.15082    0.76103    1.000
    N758     N        0.13413    0.22831    0.85777    1.000
    N759     N        0.15702    0.20933    0.80236    1.000
    Si760    Si       0.11326    0.23645    0.82168    1.000
    N761     N        0.13343    0.11493    0.87700    1.000
    N762     N        0.11883    0.04126    0.89872    1.000
    N763     N        0.14020    0.08983    0.93992    1.000
    Si764    Si       0.14957    0.02053    0.87553    1.000
    Si765    Si       0.11429    0.05495    0.93983    1.000
    Si766    Si       0.13659    0.12771    0.91805    1.000
    N767     N        0.12710    0.03565    0.97871    1.000
    N768     N        0.12404    0.26171    0.92635    1.000
    N769     N        0.13346    0.16668    0.98680    1.000
    Si770    Si       0.14900    0.25259    0.89173    1.000
    N771     N        0.16532    0.15748    0.92679    1.000
    Si772    Si       0.12832    0.37235    0.01464    1.000
    N773     N        0.11394    0.30421    0.09955    1.000
    N774     N        0.16069    0.34883    0.03154    1.000
    Si775    Si       0.10895    0.34317    0.11760    1.000
    Si776    Si       0.14628    0.43144    0.05791    1.000
    N777     N        0.13283    0.41824    0.01711    1.000
    N778     N        0.15251    0.47317    0.05202    1.000
    Si779    Si       0.13019    0.50168    0.07668    1.000
    N780     N        0.12040    0.49278    0.00268    1.000
    N781     N        0.11098    0.41994    0.08041    1.000
    Si782    Si       0.10793    0.45134    0.99846    1.000
    Si783    Si       0.16425    0.49453    0.01459    1.000
    Si784    Si       0.14099    0.36584    0.23294    1.000
    N785     N        0.13834    0.37157    0.13162    1.000
    Si786    Si       0.12766    0.28889    0.13975    1.000
    N787     N        0.15290    0.28302    0.24442    1.000
    N788     N        0.11006    0.33948    0.22068    1.000
    Si789    Si       0.11961    0.30901    0.25094    1.000
    N790     N        0.15444    0.38851    0.19650    1.000
    N791     N        0.12761    0.44920    0.21966    1.000
    N792     N        0.12544    0.44112    0.14735    1.000
    N793     N        0.12503    0.50249    0.17846    1.000
    Si794    Si       0.12851    0.40106    0.16380    1.000
    Si795    Si       0.14320    0.46186    0.18112    1.000
    Si796    Si       0.13544    0.37212    0.36065    1.000
    N797     N        0.13020    0.33511    0.28201    1.000
    Si798    Si       0.11339    0.36921    0.30130    1.000
    N799     N        0.14999    0.28701    0.36800    1.000
    Si800    Si       0.10894    0.30502    0.35649    1.000
    N801     N        0.13768    0.39879    0.32665    1.000
    N802     N        0.13152    0.39637    0.26427    1.000
    Si803    Si       0.12831    0.48159    0.29498    1.000
    N804     N        0.12450    0.49047    0.33837    1.000
    Si805    Si       0.15744    0.41691    0.29427    1.000
    N806     N        0.16256    0.45831    0.28866    1.000
    Si807    Si       0.15620    0.50685    0.36480    1.000
    N808     N        0.16543    0.29847    0.49040    1.000
    Si809    Si       0.13062    0.28899    0.46887    1.000
    N810     N        0.13592    0.37871    0.46132    1.000
    N811     N        0.14653    0.26613    0.43528    1.000
    N812     N        0.15721    0.44779    0.42071    1.000
    Si813    Si       0.11142    0.44719    0.48302    1.000
    N814     N        0.12733    0.48328    0.46489    1.000
    N815     N        0.13270    0.50662    0.40330    1.000
    Si816    Si       0.11784    0.46655    0.41834    1.000
    Si817    Si       0.14401    0.40341    0.42583    1.000
    N818     N        0.11777    0.39461    0.39316    1.000
    Si819    Si       0.13999    0.35261    0.56222    1.000
    N820     N        0.13108    0.35522    0.51947    1.000
    N821     N        0.13682    0.31725    0.58864    1.000
    Si822    Si       0.15722    0.28543    0.60969    1.000
    Si823    Si       0.15541    0.38643    0.49924    1.000
    N824     N        0.12653    0.38781    0.58325    1.000
    N825     N        0.12407    0.45687    0.60365    1.000
    Si826    Si       0.14945    0.42347    0.59231    1.000
    N827     N        0.14676    0.49890    0.53069    1.000
    N828     N        0.14099    0.42743    0.50636    1.000
    Si829    Si       0.16587    0.45817    0.52675    1.000
    Si830    Si       0.11243    0.32127    0.70798    1.000
    N831     N        0.15633    0.32180    0.70883    1.000
    N832     N        0.10808    0.39652    0.65485    1.000
    N833     N        0.13293    0.45723    0.67307    1.000
    Si834    Si       0.13341    0.48370    0.63642    1.000
    N835     N        0.12193    0.47147    0.73894    1.000
    Si836    Si       0.11588    0.49019    0.69989    1.000
    Si837    Si       0.14657    0.41527    0.66674    1.000
    N838     N        0.12865    0.34297    0.78255    1.000
    N839     N        0.13659    0.35803    0.84830    1.000
    N840     N        0.12876    0.27354    0.80511    1.000
    Si841    Si       0.15855    0.35419    0.81064    1.000
    N842     N        0.15346    0.28935    0.86910    1.000
    Si843    Si       0.11201    0.30373    0.78029    1.000
    Si844    Si       0.16615    0.28140    0.82755    1.000
    Si845    Si       0.10704    0.37386    0.76037    1.000
    Si846    Si       0.10945    0.45139    0.84635    1.000
    N847     N        0.12344    0.41321    0.76867    1.000
    N848     N        0.15185    0.44124    0.83233    1.000
    Si849    Si       0.15664    0.42395    0.79321    1.000
    N850     N        0.15477    0.50267    0.85616    1.000
    Si851    Si       0.16224    0.48643    0.75108    1.000
    Si852    Si       0.15351    0.33312    0.87865    1.000
    N853     N        0.14064    0.30585    0.98015    1.000
    N854     N        0.13002    0.32934    0.91692    1.000
    Si855    Si       0.14697    0.29608    0.93954    1.000
    N856     N        0.13317    0.37493    0.97128    1.000
    Si857    Si       0.10782    0.36298    0.93675    1.000
    Si858    Si       0.10755    0.28199    0.99629    1.000
    Si859    Si       0.15460    0.46511    0.94898    1.000
    Si860    Si       0.12851    0.49850    0.89142    1.000
    N861     N        0.11782    0.44371    0.95671    1.000
    N862     N        0.15190    0.50330    0.92911    1.000
    Si863    Si       0.15678    0.41065    0.97476    1.000
    N864     N        0.11358    0.45895    0.88919    1.000
    N865     N        0.13138    0.58367    0.10248    1.000
    Si866    Si       0.14013    0.62683    0.10719    1.000
    N867     N        0.11586    0.53543    0.05412    1.000
    N868     N        0.16144    0.52016    0.09943    1.000
    Si869    Si       0.15289    0.57125    0.99785    1.000
    N870     N        0.16374    0.63908    0.07422    1.000
    N871     N        0.16063    0.66168    0.01275    1.000
    Si872    Si       0.14990    0.67262    0.05153    1.000
    Si873    Si       0.13390    0.73475    0.07212    1.000
    N874     N        0.13767    0.74195    0.11474    1.000
    N875     N        0.11389    0.69223    0.06822    1.000
    N876     N        0.16263    0.55966    0.15970    1.000
    Si877    Si       0.14738    0.60095    0.17140    1.000
    Si878    Si       0.14874    0.53536    0.19256    1.000
    Si879    Si       0.14121    0.59939    0.23950    1.000
    N880     N        0.12598    0.56144    0.21879    1.000
    N881     N        0.16270    0.63285    0.14470    1.000
    N882     N        0.13422    0.72544    0.18186    1.000
    N883     N        0.11177    0.69241    0.24399    1.000
    Si884    Si       0.13397    0.72630    0.22486    1.000
    Si885    Si       0.16253    0.73354    0.15101    1.000
    N886     N        0.12087    0.60805    0.34669    1.000
    Si887    Si       0.15477    0.53914    0.26010    1.000
    N888     N        0.11771    0.51580    0.27076    1.000
    N889     N        0.15928    0.58048    0.27266    1.000
    N890     N        0.16192    0.54805    0.35078    1.000
    Si891    Si       0.14997    0.58479    0.37002    1.000
    Si892    Si       0.13926    0.64607    0.33249    1.000
    Si893    Si       0.12780    0.72026    0.33363    1.000
    N894     N        0.12303    0.68097    0.31149    1.000
    N895     N        0.16528    0.73827    0.34561    1.000
    N896     N        0.11007    0.74056    0.30026    1.000
    N897     N        0.14517    0.54706    0.47707    1.000
    Si898    Si       0.14726    0.58086    0.44939    1.000
    N899     N        0.13965    0.61407    0.47739    1.000
    N900     N        0.12994    0.57671    0.40722    1.000
    Si901    Si       0.10947    0.52383    0.47410    1.000
    N902     N        0.14053    0.66338    0.37275    1.000
    N903     N        0.15797    0.68584    0.48026    1.000
    N904     N        0.10665    0.69218    0.42937    1.000
    N905     N        0.14247    0.74900    0.44871    1.000
    Si906    Si       0.14777    0.70691    0.44239    1.000
    Si907    Si       0.14620    0.57661    0.58368    1.000
    N908     N        0.14452    0.57626    0.54027    1.000
    Si909    Si       0.12161    0.60643    0.51560    1.000
    N910     N        0.14263    0.61628    0.61411    1.000
    Si911    Si       0.15865    0.53944    0.51871    1.000
    N912     N        0.11181    0.56018    0.60321    1.000
    N913     N        0.12719    0.64421    0.53587    1.000
    N914     N        0.15641    0.68000    0.60092    1.000
    N915     N        0.13423    0.70757    0.53937    1.000
    Si916    Si       0.15239    0.67253    0.55743    1.000
    Si917    Si       0.11074    0.73746    0.56203    1.000
    N918     N        0.14105    0.52405    0.69662    1.000
    Si919    Si       0.14900    0.61769    0.68389    1.000
    N920     N        0.12185    0.58553    0.67212    1.000
    N921     N        0.14851    0.61857    0.72654    1.000
    Si922    Si       0.10849    0.59197    0.63213    1.000
    Si923    Si       0.10948    0.61256    0.74543    1.000
    Si924    Si       0.10844    0.55338    0.69982    1.000
    Si925    Si       0.13195    0.65654    0.62700    1.000
    N926     N        0.11831    0.72473    0.66264    1.000
    N927     N        0.14201    0.65877    0.66862    1.000
    Si928    Si       0.14547    0.69893    0.68390    1.000
    N929     N        0.13755    0.69676    0.72616    1.000
    N930     N        0.13169    0.56496    0.83468    1.000
    Si931    Si       0.13737    0.60208    0.81287    1.000
    Si932    Si       0.15540    0.53046    0.82276    1.000
    N933     N        0.15341    0.51214    0.78345    1.000
    N934     N        0.10827    0.61876    0.78733    1.000
    N935     N        0.14934    0.63405    0.83960    1.000
    N936     N        0.14842    0.70477    0.82452    1.000
    N937     N        0.12168    0.75647    0.80105    1.000
    Si938    Si       0.10767    0.71654    0.81275    1.000
    N939     N        0.15910    0.60335    0.96925    1.000
    N940     N        0.11165    0.60534    0.89237    1.000
    N941     N        0.11033    0.56272    0.99400    1.000
    N942     N        0.14403    0.67413    0.95271    1.000
    N943     N        0.16131    0.72831    0.99359    1.000
    Si944    Si       0.13860    0.64099    0.98228    1.000
    Si945    Si       0.14074    0.63490    0.88189    1.000
    N946     N        0.13027    0.67595    0.89291    1.000
    Si947    Si       0.10764    0.68902    0.93446    1.000
    N948     N        0.12671    0.82317    0.03603    1.000
    N949     N        0.13599    0.81415    0.10141    1.000
    Si950    Si       0.15369    0.80595    0.06367    1.000
    N951     N        0.15324    0.76492    0.04459    1.000
    Si952    Si       0.13647    0.76467    0.00333    1.000
    Si953    Si       0.14185    0.83772    0.99584    1.000
    N954     N        0.14833    0.92254    0.06211    1.000
    Si955    Si       0.11716    0.94356    0.03877    1.000
    N956     N        0.12885    0.92205    0.00123    1.000
    N957     N        0.11126    0.98550    0.02439    1.000
    Si958    Si       0.14694    0.86863    0.15773    1.000
    Si959    Si       0.15700    0.83231    0.22298    1.000
    N960     N        0.15335    0.83039    0.17880    1.000
    N961     N        0.12066    0.84021    0.24340    1.000
    N962     N        0.11359    0.76219    0.23985    1.000
    N963     N        0.11222    0.00576    0.15171    1.000
    N964     N        0.13308    0.89979    0.18533    1.000
    N965     N        0.11875    0.96608    0.20463    1.000
    Si966    Si       0.14527    0.93337    0.20986    1.000
    Si967    Si       0.12147    0.85132    0.28598    1.000
    Si968    Si       0.12087    0.77671    0.27915    1.000
    N969     N        0.11605    0.85952    0.34580    1.000
    N970     N        0.15951    0.87037    0.29602    1.000
    Si971    Si       0.15996    0.85995    0.34041    1.000
    N972     N        0.16307    0.77804    0.28665    1.000
    N973     N        0.10645    0.81189    0.29909    1.000
    N974     N        0.12587    0.98615    0.27163    1.000
    Si975    Si       0.13907    0.94800    0.28637    1.000
    N976     N        0.14359    0.92097    0.25274    1.000
    N977     N        0.14655    0.94417    0.36654    1.000
    N978     N        0.14065    0.81761    0.42454    1.000
    N979     N        0.14104    0.86008    0.47616    1.000
    Si980    Si       0.15639    0.85783    0.43553    1.000
    Si981    Si       0.15229    0.81917    0.49251    1.000
    N982     N        0.11712    0.79255    0.49359    1.000
    N983     N        0.13623    0.88525    0.40821    1.000
    Si984    Si       0.12805    0.89711    0.49566    1.000
    Si985    Si       0.11364    0.96924    0.47181    1.000
    N986     N        0.14369    0.93451    0.47956    1.000
    N987     N        0.12916    0.99275    0.43903    1.000
    Si988    Si       0.16483    0.91092    0.38785    1.000
    Si989    Si       0.12444    0.79345    0.61099    1.000
    N990     N        0.13961    0.83506    0.59732    1.000
    Si991    Si       0.13269    0.84849    0.55495    1.000
    N992     N        0.13480    0.77040    0.57553    1.000
    N993     N        0.16229    0.82179    0.53515    1.000
    Si994    Si       0.11929    0.86423    0.62234    1.000
    N995     N        0.13768    0.88846    0.53727    1.000
    N996     N        0.12223    0.95933    0.56859    1.000
    Si997    Si       0.13507    0.91660    0.57043    1.000
    Si998    Si       0.15648    0.98763    0.56909    1.000
    N999     N        0.15907    0.00028    0.61092    1.000
    N1000    N        0.11457    0.79156    0.70062    1.000
    Si1001   Si       0.15247    0.80597    0.71540    1.000
    Si1002   Si       0.11865    0.76685    0.66667    1.000
    N1003    N        0.15342    0.78475    0.64231    1.000
    N1004    N        0.16146    0.84488    0.70245    1.000
    Si1005   Si       0.14888    0.88310    0.68339    1.000
    N1006    N        0.15181    0.88295    0.64066    1.000
    N1007    N        0.13038    0.01152    0.67580    1.000
    N1008    N        0.16179    0.94755    0.65401    1.000
    Si1009   Si       0.13770    0.98260    0.64360    1.000
    N1010    N        0.10883    0.89409    0.69496    1.000
    Si1011   Si       0.14607    0.84483    0.79105    1.000
    N1012    N        0.14298    0.80821    0.75745    1.000
    Si1013   Si       0.11140    0.79373    0.78285    1.000
    N1014    N        0.14164    0.87573    0.75607    1.000
    N1015    N        0.15610    0.88206    0.81453    1.000
    N1016    N        0.11770    0.99953    0.85453    1.000
    Si1017   Si       0.14877    0.89997    0.85196    1.000
    N1018    N        0.15450    0.94320    0.85464    1.000
    Si1019   Si       0.11216    0.95713    0.85051    1.000
    N1020    N        0.10741    0.88943    0.85645    1.000
    Si1021   Si       0.16403    0.90491    0.77898    1.000
    N1022    N        0.16233    0.94587    0.77421    1.000
    N1023    N        0.11833    0.81110    0.91743    1.000
    N1024    N        0.16367    0.84879    0.93682    1.000
    N1025    N        0.15174    0.79704    0.97784    1.000
    Si1026   Si       0.11821    0.76699    0.90759    1.000
    Si1027   Si       0.11563    0.85355    0.93439    1.000
    N1028    N        0.16304    0.76793    0.90855    1.000
    Si1029   Si       0.16745    0.80491    0.93604    1.000
    Si1030   Si       0.16583    0.88957    0.92304    1.000
    N1031    N        0.16356    0.98324    0.98146    1.000
    Si1032   Si       0.12044    0.99115    0.98215    1.000
    N1033    N        0.12310    0.89832    0.92932    1.000
    N1034    N        0.18593    0.07834    0.07042    1.000
    Si1035   Si       0.18858    0.10006    0.03080    1.000
    Si1036   Si       0.21141    0.08593    0.10501    1.000
    N1037    N        0.18796    0.02671    0.02886    1.000
    N1038    N        0.20056    0.12779    0.11348    1.000
    Si1039   Si       0.16358    0.04407    0.06020    1.000
    N1040    N        0.16920    0.08198    0.99781    1.000
    Si1041   Si       0.17019    0.23756    0.00394    1.000
    Si1042   Si       0.21131    0.18543    0.02559    1.000
    N1043    N        0.19876    0.24643    0.08136    1.000
    N1044    N        0.17343    0.20432    0.03346    1.000
    N1045    N        0.20831    0.05047    0.13115    1.000
    N1046    N        0.21010    0.07045    0.22526    1.000
    Si1047   Si       0.18084    0.03862    0.22198    1.000
    Si1048   Si       0.16898    0.02927    0.13706    1.000
    N1049    N        0.16766    0.01919    0.18382    1.000
    N1050    N        0.20422    0.17397    0.17384    1.000
    Si1051   Si       0.18924    0.21247    0.16931    1.000
    N1052    N        0.21071    0.15193    0.23861    1.000
    Si1053   Si       0.22623    0.14928    0.14257    1.000
    N1054    N        0.21993    0.24051    0.15956    1.000
    Si1055   Si       0.19832    0.25562    0.12397    1.000
    N1056    N        0.19407    0.22676    0.24773    1.000
    N1057    N        0.20120    0.10255    0.28870    1.000
    Si1058   Si       0.18848    0.06891    0.31270    1.000
    N1059    N        0.17698    0.07699    0.35445    1.000
    N1060    N        0.22419    0.04339    0.30881    1.000
    Si1061   Si       0.19867    0.11056    0.24599    1.000
    N1062    N        0.19809    0.01090    0.24975    1.000
    N1063    N        0.22498    0.20888    0.35187    1.000
    N1064    N        0.18226    0.15308    0.36160    1.000
    Si1065   Si       0.20501    0.18648    0.26354    1.000
    N1066    N        0.17500    0.18039    0.29361    1.000
    Si1067   Si       0.22180    0.16465    0.34196    1.000
    Si1068   Si       0.22560    0.00872    0.39247    1.000
    N1069    N        0.16908    0.06305    0.45103    1.000
    N1070    N        0.21392    0.10310    0.48781    1.000
    Si1071   Si       0.20848    0.08105    0.44809    1.000
    Si1072   Si       0.17885    0.11244    0.38155    1.000
    N1073    N        0.18585    0.02471    0.40295    1.000
    N1074    N        0.20547    0.11164    0.41814    1.000
    Si1075   Si       0.20988    0.20628    0.45916    1.000
    N1076    N        0.16640    0.19710    0.45704    1.000
    Si1077   Si       0.20590    0.21558    0.39058    1.000
    N1078    N        0.22114    0.18678    0.42063    1.000
    N1079    N        0.21428    0.25539    0.40603    1.000
    N1080    N        0.20541    0.24934    0.47107    1.000
    N1081    N        0.19879    0.05194    0.58284    1.000
    N1082    N        0.21034    0.04084    0.51806    1.000
    Si1083   Si       0.17889    0.05257    0.54388    1.000
    Si1084   Si       0.17757    0.12015    0.50310    1.000
    N1085    N        0.19116    0.20211    0.59163    1.000
    Si1086   Si       0.18791    0.23604    0.56705    1.000
    Si1087   Si       0.21377    0.18251    0.52722    1.000
    N1088    N        0.17713    0.16220    0.51803    1.000
    N1089    N        0.21753    0.22654    0.53679    1.000
    Si1090   Si       0.21791    0.17056    0.60034    1.000
    Si1091   Si       0.18256    0.03665    0.62258    1.000
    Si1092   Si       0.20686    0.10380    0.64469    1.000
    N1093    N        0.19528    0.02327    0.66147    1.000
    N1094    N        0.21254    0.09680    0.68841    1.000
    Si1095   Si       0.18070    0.09207    0.71849    1.000
    N1096    N        0.17040    0.08022    0.63119    1.000
    N1097    N        0.16913    0.05211    0.72305    1.000
    Si1098   Si       0.21498    0.14694    0.74819    1.000
    N1099    N        0.19192    0.16024    0.71496    1.000
    N1100    N        0.20782    0.14922    0.63933    1.000
    Si1101   Si       0.20445    0.17598    0.67448    1.000
    N1102    N        0.19032    0.25707    0.70853    1.000
    N1103    N        0.16700    0.19938    0.66963    1.000
    N1104    N        0.18605    0.11337    0.82401    1.000
    Si1105   Si       0.18414    0.02278    0.81502    1.000
    Si1106   Si       0.18474    0.08674    0.78987    1.000
    N1107    N        0.21163    0.05259    0.79963    1.000
    N1108    N        0.19785    0.10791    0.75431    1.000
    Si1109   Si       0.16710    0.09180    0.85892    1.000
    N1110    N        0.16656    0.05006    0.84644    1.000
    N1111    N        0.19149    0.17689    0.85325    1.000
    Si1112   Si       0.18954    0.20823    0.76922    1.000
    Si1113   Si       0.21035    0.15200    0.82439    1.000
    N1114    N        0.19531    0.25034    0.83287    1.000
    N1115    N        0.20816    0.16965    0.78406    1.000
    Si1116   Si       0.17303    0.21345    0.84147    1.000
    N1117    N        0.22191    0.24090    0.77126    1.000
    Si1118   Si       0.20848    0.00995    0.92521    1.000
    N1119    N        0.21625    0.10377    0.95255    1.000
    Si1120   Si       0.17078    0.02565    0.98860    1.000
    N1121    N        0.19109    0.03792    0.95224    1.000
    N1122    N        0.19235    0.09421    0.89395    1.000
    Si1123   Si       0.18032    0.07888    0.95467    1.000
    N1124    N        0.18202    0.21660    0.96819    1.000
    N1125    N        0.18047    0.22356    0.90279    1.000
    Si1126   Si       0.20512    0.24061    0.93623    1.000
    Si1127   Si       0.19264    0.18123    0.89726    1.000
    Si1128   Si       0.17231    0.17362    0.96660    1.000
    N1129    N        0.20633    0.16046    0.99061    1.000
    N1130    N        0.19358    0.34696    0.09812    1.000
    N1131    N        0.18848    0.27448    0.01843    1.000
    Si1132   Si       0.18919    0.36563    0.05952    1.000
    Si1133   Si       0.17429    0.31471    0.00666    1.000
    Si1134   Si       0.22046    0.25747    0.04670    1.000
    N1135    N        0.17882    0.40731    0.06983    1.000
    Si1136   Si       0.21011    0.42503    0.09482    1.000
    N1137    N        0.21842    0.46521    0.07886    1.000
    Si1138   Si       0.19871    0.50330    0.08422    1.000
    Si1139   Si       0.17959    0.37245    0.12912    1.000
    N1140    N        0.18332    0.34768    0.23734    1.000
    Si1141   Si       0.19338    0.37139    0.19844    1.000
    Si1142   Si       0.20488    0.31816    0.13237    1.000
    N1143    N        0.19758    0.34767    0.16268    1.000
    N1144    N        0.17081    0.28691    0.13532    1.000
    Si1145   Si       0.20491    0.49627    0.20934    1.000
    N1146    N        0.18673    0.46484    0.18624    1.000
    N1147    N        0.22364    0.40324    0.20137    1.000
    N1148    N        0.19845    0.41086    0.13432    1.000
    Si1149   Si       0.21398    0.43417    0.16993    1.000
    N1150    N        0.20282    0.31965    0.29126    1.000
    Si1151   Si       0.20585    0.36042    0.27409    1.000
    N1152    N        0.21886    0.30219    0.35948    1.000
    N1153    N        0.17343    0.35303    0.36567    1.000
    Si1154   Si       0.18981    0.30590    0.25104    1.000
    N1155    N        0.19623    0.39827    0.29235    1.000
    Si1156   Si       0.19949    0.48195    0.28398    1.000
    N1157    N        0.20283    0.41962    0.36046    1.000
    Si1158   Si       0.22083    0.41939    0.32230    1.000
    N1159    N        0.19329    0.48423    0.36865    1.000
    N1160    N        0.22179    0.48233    0.24606    1.000
    N1161    N        0.22611    0.46268    0.31283    1.000
    Si1162   Si       0.18225    0.31223    0.38107    1.000
    Si1163   Si       0.19669    0.35642    0.44706    1.000
    N1164    N        0.19188    0.31786    0.42372    1.000
    Si1165   Si       0.18935    0.27697    0.43859    1.000
    Si1166   Si       0.20359    0.37999    0.38070    1.000
    N1167    N        0.19303    0.36608    0.49099    1.000
    Si1168   Si       0.19281    0.44755    0.39228    1.000
    Si1169   Si       0.16988    0.47748    0.45414    1.000
    N1170    N        0.18516    0.38904    0.41967    1.000
    N1171    N        0.18987    0.46379    0.49027    1.000
    N1172    N        0.22701    0.45109    0.41718    1.000
    N1173    N        0.18350    0.35182    0.55476    1.000
    Si1174   Si       0.18146    0.33141    0.51575    1.000
    N1175    N        0.19331    0.26875    0.59195    1.000
    Si1176   Si       0.21491    0.35430    0.58463    1.000
    N1177    N        0.21227    0.29870    0.52432    1.000
    Si1178   Si       0.18889    0.26488    0.50892    1.000
    N1179    N        0.17729    0.43640    0.56321    1.000
    Si1180   Si       0.22011    0.43118    0.56901    1.000
    N1181    N        0.20227    0.35400    0.62591    1.000
    Si1182   Si       0.21237    0.31991    0.65189    1.000
    Si1183   Si       0.18497    0.35531    0.70993    1.000
    N1184    N        0.17477    0.29842    0.64907    1.000
    N1185    N        0.22054    0.33377    0.69100    1.000
    N1186    N        0.21677    0.37765    0.73661    1.000
    Si1187   Si       0.22328    0.26608    0.73628    1.000
    Si1188   Si       0.16395    0.28589    0.68762    1.000
    N1189    N        0.17381    0.38752    0.68453    1.000
    Si1190   Si       0.19889    0.39215    0.64824    1.000
    N1191    N        0.17069    0.41885    0.63101    1.000
    N1192    N        0.19481    0.49985    0.72343    1.000
    N1193    N        0.17087    0.50618    0.63919    1.000
    N1194    N        0.18288    0.31813    0.80987    1.000
    Si1195   Si       0.22049    0.31642    0.79198    1.000
    N1196    N        0.21957    0.30787    0.75039    1.000
    N1197    N        0.18327    0.38775    0.80012    1.000
    N1198    N        0.18208    0.45196    0.77106    1.000
    Si1199   Si       0.18036    0.46726    0.85302    1.000
    N1200    N        0.21307    0.48246    0.82763    1.000
    Si1201   Si       0.22235    0.38947    0.78206    1.000
    Si1202   Si       0.21983    0.46354    0.78988    1.000
    N1203    N        0.19604    0.34139    0.88437    1.000
    N1204    N        0.18756    0.28341    0.93176    1.000
    N1205    N        0.20681    0.32916    0.98116    1.000
    Si1206   Si       0.22115    0.30015    0.95233    1.000
    Si1207   Si       0.22415    0.36708    0.99543    1.000
    N1208    N        0.17166    0.42588    0.93453    1.000
    N1209    N        0.19844    0.40167    0.98802    1.000
    Si1210   Si       0.21500    0.44034    0.98107    1.000
    N1211    N        0.17858    0.46457    0.98672    1.000
    N1212    N        0.20744    0.45470    0.88515    1.000
    Si1213   Si       0.20817    0.42218    0.91351    1.000
    N1214    N        0.22178    0.50429    0.94269    1.000
    Si1215   Si       0.18952    0.60808    0.06362    1.000
    Si1216   Si       0.21333    0.55236    0.02858    1.000
    N1217    N        0.17963    0.58006    0.03208    1.000
    N1218    N        0.19818    0.58326    0.09909    1.000
    N1219    N        0.22094    0.62771    0.04343    1.000
    N1220    N        0.20342    0.51151    0.03942    1.000
    Si1221   Si       0.16507    0.55933    0.11491    1.000
    Si1222   Si       0.20287    0.70860    0.09344    1.000
    Si1223   Si       0.18507    0.73540    0.02977    1.000
    N1224    N        0.17271    0.70907    0.06406    1.000
    N1225    N        0.21525    0.75224    0.09469    1.000
    N1226    N        0.21539    0.69835    0.01704    1.000
    N1227    N        0.17371    0.52188    0.22528    1.000
    Si1228   Si       0.20791    0.63045    0.21288    1.000
    N1229    N        0.17003    0.61085    0.20831    1.000
    N1230    N        0.17730    0.72790    0.23441    1.000
    Si1231   Si       0.19378    0.66353    0.15130    1.000
    N1232    N        0.18577    0.70102    0.13158    1.000
    N1233    N        0.19847    0.66918    0.19579    1.000
    Si1234   Si       0.21077    0.70333    0.22228    1.000
    Si1235   Si       0.19073    0.60629    0.28710    1.000
    Si1236   Si       0.19522    0.54701    0.32476    1.000
    N1237    N        0.18340    0.51945    0.29203    1.000
    N1238    N        0.21794    0.58497    0.31526    1.000
    N1239    N        0.21446    0.62254    0.25544    1.000
    Si1240   Si       0.21468    0.62781    0.34230    1.000
    N1241    N        0.17858    0.63719    0.31721    1.000
    N1242    N        0.21287    0.66147    0.37291    1.000
    N1243    N        0.19007    0.60277    0.37576    1.000
    Si1244   Si       0.20358    0.60910    0.41686    1.000
    N1245    N        0.18927    0.57721    0.44160    1.000
    Si1246   Si       0.20357    0.54445    0.46497    1.000
    N1247    N        0.19879    0.50820    0.44384    1.000
    Si1248   Si       0.17689    0.66468    0.39539    1.000
    N1249    N        0.17687    0.64061    0.43118    1.000
    Si1250   Si       0.19134    0.73495    0.38153    1.000
    N1251    N        0.21148    0.63482    0.49414    1.000
    Si1252   Si       0.17228    0.64334    0.47497    1.000
    N1253    N        0.17702    0.70580    0.40935    1.000
    N1254    N        0.21840    0.70741    0.49662    1.000
    N1255    N        0.20361    0.54098    0.50911    1.000
    N1256    N        0.18152    0.56696    0.60491    1.000
    Si1257   Si       0.18663    0.60649    0.61996    1.000
    N1258    N        0.21252    0.64144    0.60310    1.000
    N1259    N        0.19303    0.67975    0.54770    1.000
    Si1260   Si       0.20072    0.68119    0.59261    1.000
    N1261    N        0.21389    0.71674    0.60797    1.000
    Si1262   Si       0.17484    0.71145    0.51510    1.000
    N1263    N        0.18140    0.75423    0.51882    1.000
    Si1264   Si       0.22862    0.66896    0.51765    1.000
    Si1265   Si       0.22273    0.75946    0.59932    1.000
    Si1266   Si       0.20033    0.53312    0.62316    1.000
    Si1267   Si       0.18129    0.51718    0.68216    1.000
    N1268    N        0.21626    0.53806    0.66588    1.000
    N1269    N        0.18721    0.60579    0.66523    1.000
    Si1270   Si       0.22464    0.58123    0.66863    1.000
    Si1271   Si       0.21806    0.72306    0.65146    1.000
    N1272    N        0.18711    0.70977    0.67766    1.000
    Si1273   Si       0.20806    0.57434    0.79200    1.000
    N1274    N        0.19751    0.54600    0.82275    1.000
    N1275    N        0.16999    0.59386    0.78586    1.000
    Si1276   Si       0.17730    0.62579    0.75688    1.000
    N1277    N        0.22145    0.62743    0.75141    1.000
    N1278    N        0.17535    0.66380    0.77749    1.000
    Si1279   Si       0.17227    0.66604    0.82082    1.000
    N1280    N        0.17942    0.73349    0.77221    1.000
    N1281    N        0.21229    0.65718    0.83929    1.000
    Si1282   Si       0.17531    0.69649    0.74846    1.000
    Si1283   Si       0.22065    0.73973    0.76622    1.000
    Si1284   Si       0.16240    0.74442    0.81060    1.000
    Si1285   Si       0.18667    0.60378    0.93725    1.000
    Si1286   Si       0.18372    0.52809    0.94520    1.000
    N1287    N        0.19721    0.56353    0.92455    1.000
    N1288    N        0.17124    0.53223    0.98672    1.000
    Si1289   Si       0.19002    0.74629    0.88234    1.000
    N1290    N        0.17639    0.63382    0.90745    1.000
    Si1291   Si       0.17187    0.67646    0.91923    1.000
    N1292    N        0.19852    0.70453    0.89194    1.000
    Si1293   Si       0.18122    0.69012    0.98610    1.000
    N1294    N        0.20694    0.68582    0.94979    1.000
    N1295    N        0.19522    0.81765    0.06203    1.000
    Si1296   Si       0.21061    0.85141    0.03469    1.000
    N1297    N        0.17391    0.86510    0.01023    1.000
    N1298    N        0.21907    0.76230    0.02610    1.000
    Si1299   Si       0.22226    0.78245    0.06432    1.000
    Si1300   Si       0.16930    0.90489    0.02618    1.000
    N1301    N        0.20226    0.88895    0.06010    1.000
    N1302    N        0.19966    0.93064    0.01040    1.000
    Si1303   Si       0.17803    0.90486    0.09134    1.000
    N1304    N        0.21255    0.92651    0.11082    1.000
    Si1305   Si       0.21741    0.96830    0.10535    1.000
    N1306    N        0.21489    0.97663    0.06403    1.000
    N1307    N        0.18550    0.86430    0.23157    1.000
    Si1308   Si       0.18796    0.80269    0.18007    1.000
    N1309    N        0.18222    0.79663    0.22463    1.000
    N1310    N        0.19454    0.76466    0.15958    1.000
    Si1311   Si       0.22294    0.86286    0.20999    1.000
    N1312    N        0.22262    0.82853    0.17984    1.000
    N1313    N        0.17634    0.88349    0.12912    1.000
    N1314    N        0.22797    0.89890    0.18628    1.000
    N1315    N        0.18741    0.98657    0.13487    1.000
    Si1316   Si       0.21920    0.89709    0.14370    1.000
    Si1317   Si       0.22167    0.93113    0.21831    1.000
    Si1318   Si       0.19258    0.98278    0.17685    1.000
    N1319    N        0.18457    0.94831    0.20121    1.000
    Si1320   Si       0.17648    0.77688    0.32543    1.000
    N1321    N        0.21943    0.78578    0.33133    1.000
    Si1322   Si       0.18892    0.76444    0.25301    1.000
    N1323    N        0.17045    0.81711    0.35050    1.000
    Si1324   Si       0.20548    0.80300    0.37019    1.000
    N1325    N        0.18967    0.88403    0.36256    1.000
    Si1326   Si       0.17545    0.89216    0.26318    1.000
    N1327    N        0.17590    0.95354    0.30876    1.000
    N1328    N        0.21129    0.98024    0.36142    1.000
    N1329    N        0.21029    0.91811    0.25877    1.000
    Si1330   Si       0.21528    0.94048    0.29497    1.000
    Si1331   Si       0.16972    0.97513    0.34631    1.000
    N1332    N        0.18771    0.80380    0.47073    1.000
    N1333    N        0.20013    0.86488    0.43664    1.000
    N1334    N        0.19160    0.77391    0.39967    1.000
    Si1335   Si       0.21882    0.83700    0.46397    1.000
    Si1336   Si       0.20943    0.76803    0.48889    1.000
    Si1337   Si       0.16584    0.78535    0.43541    1.000
    Si1338   Si       0.22098    0.90431    0.43212    1.000
    Si1339   Si       0.18029    0.94845    0.45887    1.000
    N1340    N        0.18586    0.92926    0.42149    1.000
    N1341    N        0.22224    0.92860    0.46929    1.000
    N1342    N        0.18539    0.99052    0.47279    1.000
    N1343    N        0.20591    0.86122    0.58363    1.000
    N1344    N        0.19891    0.79112    0.58148    1.000
    Si1345   Si       0.18463    0.82835    0.60043    1.000
    Si1346   Si       0.16816    0.78233    0.55144    1.000
    N1347    N        0.17511    0.92472    0.58457    1.000
    N1348    N        0.19006    0.97675    0.54384    1.000
    Si1349   Si       0.20782    0.93946    0.56089    1.000
    Si1350   Si       0.20976    0.99831    0.51038    1.000
    N1351    N        0.22126    0.90817    0.53460    1.000
    N1352    N        0.20680    0.83154    0.63842    1.000
    Si1353   Si       0.18983    0.86967    0.72819    1.000
    Si1354   Si       0.19511    0.79423    0.65679    1.000
    N1355    N        0.19030    0.78802    0.69899    1.000
    N1356    N        0.22784    0.76626    0.64309    1.000
    N1357    N        0.17979    0.90489    0.70255    1.000
    N1358    N        0.21654    0.90499    0.63694    1.000
    Si1359   Si       0.17685    0.91588    0.62780    1.000
    N1360    N        0.17762    0.98248    0.71406    1.000
    Si1361   Si       0.18578    0.94628    0.69034    1.000
    Si1362   Si       0.20119    0.80103    0.83741    1.000
    N1363    N        0.16978    0.81771    0.81515    1.000
    N1364    N        0.18918    0.75840    0.84051    1.000
    N1365    N        0.20206    0.88843    0.76598    1.000
    N1366    N        0.20212    0.98802    0.82960    1.000
    Si1367   Si       0.18095    0.98032    0.75711    1.000
    Si1368   Si       0.19159    0.96396    0.86538    1.000
    N1369    N        0.22293    0.98293    0.76614    1.000
    N1370    N        0.20490    0.82185    0.87545    1.000
    N1371    N        0.21049    0.80197    0.94468    1.000
    Si1372   Si       0.21369    0.86479    0.87739    1.000
    Si1373   Si       0.19211    0.95358    0.97244    1.000
    N1374    N        0.18777    0.92023    0.94356    1.000
    N1375    N        0.18045    0.99648    0.89349    1.000
    N1376    N        0.17625    0.88500    0.88037    1.000
    N1377    N        0.22130    0.97420    0.94749    1.000
    N1378    N        0.22510    0.93883    0.88282    1.000
    N1379    N        0.25853    0.03884    0.04244    1.000
    N1380    N        0.25404    0.08691    0.09109    1.000
    Si1381   Si       0.25772    0.08123    0.04805    1.000
    N1382    N        0.23054    0.10492    0.02224    1.000
    N1383    N        0.28229    0.22001    0.07273    1.000
    N1384    N        0.23487    0.22366    0.02295    1.000
    Si1385   Si       0.26660    0.17801    0.08327    1.000
    Si1386   Si       0.27752    0.21518    0.02917    1.000
    N1387    N        0.23214    0.17169    0.06037    1.000
    Si1388   Si       0.25358    0.06912    0.23329    1.000
    Si1389   Si       0.23799    0.02155    0.14405    1.000
    N1390    N        0.24480    0.12785    0.17556    1.000
    N1391    N        0.28017    0.06839    0.19948    1.000
    N1392    N        0.27880    0.03818    0.14102    1.000
    Si1393   Si       0.28187    0.10484    0.17887    1.000
    N1394    N        0.27151    0.24208    0.23558    1.000
    Si1395   Si       0.23396    0.15848    0.20324    1.000
    Si1396   Si       0.28150    0.18932    0.15797    1.000
    N1397    N        0.26804    0.18501    0.19908    1.000
    N1398    N        0.25597    0.17348    0.12541    1.000
    Si1399   Si       0.24229    0.11016    0.29508    1.000
    Si1400   Si       0.25893    0.04936    0.33473    1.000
    N1401    N        0.26771    0.08906    0.32462    1.000
    N1402    N        0.25825    0.10573    0.25507    1.000
    N1403    N        0.26251    0.02618    0.24957    1.000
    Si1404   Si       0.28115    0.12172    0.35193    1.000
    Si1405   Si       0.23114    0.01380    0.27807    1.000
    N1406    N        0.24606    0.15138    0.30985    1.000
    Si1407   Si       0.25670    0.23422    0.33224    1.000
    N1408    N        0.24127    0.20471    0.27822    1.000
    Si1409   Si       0.27357    0.17938    0.29454    1.000
    Si1410   Si       0.23546    0.24497    0.26119    1.000
    N1411    N        0.27400    0.25761    0.36702    1.000
    N1412    N        0.24719    0.14398    0.37166    1.000
    N1413    N        0.25470    0.03794    0.37669    1.000
    N1414    N        0.24044    0.05341    0.45686    1.000
    Si1415   Si       0.28031    0.04432    0.46482    1.000
    N1416    N        0.26712    0.13412    0.43714    1.000
    Si1417   Si       0.26639    0.15831    0.47310    1.000
    Si1418   Si       0.23145    0.14587    0.41067    1.000
    N1419    N        0.23279    0.18483    0.48751    1.000
    Si1420   Si       0.23771    0.06965    0.58171    1.000
    N1421    N        0.24510    0.09297    0.54525    1.000
    Si1422   Si       0.24137    0.07271    0.50505    1.000
    N1423    N        0.27188    0.04265    0.58146    1.000
    N1424    N        0.24022    0.09148    0.61926    1.000
    Si1425   Si       0.27811    0.02674    0.62124    1.000
    Si1426   Si       0.26376    0.13357    0.54671    1.000
    Si1427   Si       0.25960    0.23866    0.54509    1.000
    N1428    N        0.26183    0.24709    0.58853    1.000
    N1429    N        0.25722    0.18551    0.61617    1.000
    N1430    N        0.23130    0.15977    0.55842    1.000
    Si1431   Si       0.28266    0.09336    0.63860    1.000
    N1432    N        0.27617    0.07641    0.71524    1.000
    N1433    N        0.27053    0.12583    0.66650    1.000
    Si1434   Si       0.25116    0.11019    0.70247    1.000
    N1435    N        0.24940    0.01532    0.70285    1.000
    N1436    N        0.28799    0.05421    0.65214    1.000
    Si1437   Si       0.28137    0.04033    0.69367    1.000
    Si1438   Si       0.26833    0.16532    0.65157    1.000
    N1439    N        0.24480    0.19140    0.67848    1.000
    N1440    N        0.25589    0.13883    0.73474    1.000
    Si1441   Si       0.27064    0.22438    0.69158    1.000
    Si1442   Si       0.25374    0.05628    0.80533    1.000
    N1443    N        0.27054    0.03389    0.76962    1.000
    N1444    N        0.26977    0.09401    0.78768    1.000
    N1445    N        0.27804    0.04725    0.83902    1.000
    Si1446   Si       0.27870    0.13215    0.86774    1.000
    N1447    N        0.25153    0.13990    0.83536    1.000
    N1448    N        0.26310    0.22648    0.83650    1.000
    Si1449   Si       0.23367    0.24923    0.81375    1.000
    Si1450   Si       0.27065    0.05834    0.88341    1.000
    N1451    N        0.24296    0.03274    0.90783    1.000
    N1452    N        0.26141    0.10027    0.89170    1.000
    Si1453   Si       0.23397    0.12672    0.98470    1.000
    Si1454   Si       0.27366    0.03547    0.93773    1.000
    Si1455   Si       0.22658    0.11336    0.91161    1.000
    N1456    N        0.27541    0.13001    0.97416    1.000
    Si1457   Si       0.25829    0.18640    0.91393    1.000
    N1458    N        0.24416    0.22650    0.90689    1.000
    Si1459   Si       0.27129    0.24341    0.87562    1.000
    N1460    N        0.27703    0.19709    0.95174    1.000
    N1461    N        0.22766    0.15799    0.91076    1.000
    Si1462   Si       0.27408    0.23901    0.96139    1.000
    N1463    N        0.25182    0.28389    0.05881    1.000
    Si1464   Si       0.26581    0.29897    0.09575    1.000
    Si1465   Si       0.26082    0.37313    0.06783    1.000
    N1466    N        0.26869    0.34228    0.09774    1.000
    N1467    N        0.22848    0.36456    0.03903    1.000
    N1468    N        0.25392    0.41177    0.08628    1.000
    N1469    N        0.24569    0.45526    0.00698    1.000
    N1470    N        0.27400    0.49842    0.04652    1.000
    Si1471   Si       0.23634    0.47886    0.04180    1.000
    Si1472   Si       0.26926    0.43362    0.12099    1.000
    N1473    N        0.23415    0.28781    0.12454    1.000
    Si1474   Si       0.26844    0.28425    0.22474    1.000
    N1475    N        0.27721    0.28722    0.18195    1.000
    N1476    N        0.22668    0.28494    0.23842    1.000
    Si1477   Si       0.25807    0.26120    0.15372    1.000
    Si1478   Si       0.25477    0.39701    0.22962    1.000
    Si1479   Si       0.24562    0.50167    0.14726    1.000
    N1480    N        0.24290    0.45661    0.14587    1.000
    N1481    N        0.26529    0.32960    0.31680    1.000
    Si1482   Si       0.27103    0.36408    0.34494    1.000
    Si1483   Si       0.27697    0.34000    0.27480    1.000
    N1484    N        0.24426    0.26295    0.30244    1.000
    N1485    N        0.24597    0.36330    0.25687    1.000
    Si1486   Si       0.23185    0.30159    0.31585    1.000
    Si1487   Si       0.23206    0.48759    0.34782    1.000
    N1488    N        0.27349    0.47599    0.35588    1.000
    N1489    N        0.26065    0.40185    0.32153    1.000
    N1490    N        0.26686    0.43154    0.25535    1.000
    Si1491   Si       0.26424    0.47569    0.25568    1.000
    N1492    N        0.28169    0.50296    0.28653    1.000
    N1493    N        0.24341    0.36482    0.37965    1.000
    Si1494   Si       0.26562    0.35027    0.41760    1.000
    N1495    N        0.24150    0.36295    0.45226    1.000
    N1496    N        0.26939    0.30703    0.41490    1.000
    Si1497   Si       0.24395    0.28138    0.38951    1.000
    Si1498   Si       0.23785    0.37740    0.49188    1.000
    Si1499   Si       0.23674    0.48472    0.43789    1.000
    N1500    N        0.25727    0.47856    0.47740    1.000
    N1501    N        0.24536    0.32148    0.58139    1.000
    N1502    N        0.25975    0.35408    0.52178    1.000
    Si1503   Si       0.23550    0.28134    0.59747    1.000
    Si1504   Si       0.25135    0.31207    0.53655    1.000
    N1505    N        0.27348    0.27561    0.52776    1.000
    Si1506   Si       0.27812    0.33508    0.60576    1.000
    Si1507   Si       0.27437    0.38098    0.55446    1.000
    Si1508   Si       0.24474    0.48775    0.58332    1.000
    N1509    N        0.23641    0.39117    0.57394    1.000
    N1510    N        0.23380    0.45245    0.60573    1.000
    N1511    N        0.23139    0.46695    0.54582    1.000
    Si1512   Si       0.22907    0.45733    0.50308    1.000
    N1513    N        0.24681    0.41821    0.50215    1.000
    N1514    N        0.28263    0.35957    0.64203    1.000
    N1515    N        0.27505    0.37167    0.71143    1.000
    N1516    N        0.24344    0.29146    0.64011    1.000
    Si1517   Si       0.24490    0.34011    0.72922    1.000
    N1518    N        0.26054    0.25991    0.71376    1.000
    N1519    N        0.28327    0.32026    0.74850    1.000
    N1520    N        0.26445    0.43533    0.72486    1.000
    Si1521   Si       0.23941    0.40245    0.70840    1.000
    Si1522   Si       0.25567    0.44135    0.64163    1.000
    N1523    N        0.23370    0.41348    0.66706    1.000
    N1524    N        0.26314    0.47854    0.66401    1.000
    Si1525   Si       0.27244    0.47258    0.70536    1.000
    N1526    N        0.24421    0.35256    0.79362    1.000
    N1527    N        0.24778    0.28983    0.81649    1.000
    Si1528   Si       0.27514    0.31341    0.84378    1.000
    N1529    N        0.26832    0.34999    0.86945    1.000
    Si1530   Si       0.28590    0.42709    0.81034    1.000
    N1531    N        0.24360    0.42546    0.79389    1.000
    N1532    N        0.24205    0.49369    0.77087    1.000
    Si1533   Si       0.27484    0.50490    0.79779    1.000
    N1534    N        0.28150    0.41922    0.85256    1.000
    Si1535   Si       0.23531    0.34856    0.89735    1.000
    N1536    N        0.25047    0.31770    0.92732    1.000
    N1537    N        0.26183    0.38221    0.97662    1.000
    N1538    N        0.23616    0.26045    0.96158    1.000
    N1539    N        0.27927    0.28704    0.87707    1.000
    Si1540   Si       0.23709    0.48140    0.90848    1.000
    N1541    N        0.28361    0.47862    0.90225    1.000
    Si1542   Si       0.26440    0.40519    0.93949    1.000
    N1543    N        0.23698    0.44052    0.94375    1.000
    N1544    N        0.23524    0.38769    0.91198    1.000
    N1545    N        0.24464    0.55881    0.05911    1.000
    Si1546   Si       0.23559    0.56290    0.10099    1.000
    Si1547   Si       0.28093    0.54128    0.04970    1.000
    N1548    N        0.22694    0.52125    0.11360    1.000
    Si1549   Si       0.23818    0.66652    0.04118    1.000
    N1550    N        0.23462    0.68128    0.08094    1.000
    Si1551   Si       0.24396    0.72965    0.00697    1.000
    Si1552   Si       0.26409    0.67497    0.11506    1.000
    N1553    N        0.27967    0.66705    0.03111    1.000
    N1554    N        0.28178    0.73295    0.02515    1.000
    N1555    N        0.26425    0.57918    0.13079    1.000
    N1556    N        0.24647    0.61451    0.19428    1.000
    Si1557   Si       0.26088    0.61625    0.15068    1.000
    Si1558   Si       0.27907    0.52510    0.19915    1.000
    N1559    N        0.23662    0.51555    0.18813    1.000
    Si1560   Si       0.27865    0.60178    0.22148    1.000
    N1561    N        0.28184    0.55756    0.23025    1.000
    Si1562   Si       0.25666    0.75425    0.23491    1.000
    Si1563   Si       0.27004    0.71453    0.17418    1.000
    N1564    N        0.25393    0.71390    0.13616    1.000
    N1565    N        0.24006    0.72835    0.20406    1.000
    N1566    N        0.23129    0.64604    0.13759    1.000
    Si1567   Si       0.22954    0.75179    0.13692    1.000
    Si1568   Si       0.25511    0.56596    0.32765    1.000
    N1569    N        0.23355    0.52895    0.33494    1.000
    N1570    N        0.26554    0.58250    0.36487    1.000
    N1571    N        0.28247    0.63197    0.25391    1.000
    N1572    N        0.24859    0.64437    0.31567    1.000
    Si1573   Si       0.24459    0.64917    0.27195    1.000
    N1574    N        0.27726    0.74401    0.32184    1.000
    N1575    N        0.23262    0.68654    0.25432    1.000
    Si1576   Si       0.27651    0.73651    0.36475    1.000
    N1577    N        0.28135    0.68879    0.36687    1.000
    N1578    N        0.23270    0.72754    0.37172    1.000
    Si1579   Si       0.24545    0.60570    0.48200    1.000
    N1580    N        0.24468    0.61245    0.42663    1.000
    N1581    N        0.24942    0.56038    0.46814    1.000
    Si1582   Si       0.28025    0.60038    0.40109    1.000
    Si1583   Si       0.28096    0.54164    0.44212    1.000
    N1584    N        0.26482    0.50851    0.41666    1.000
    N1585    N        0.22878    0.75212    0.45177    1.000
    N1586    N        0.24508    0.68258    0.43095    1.000
    Si1587   Si       0.26972    0.64859    0.43709    1.000
    Si1588   Si       0.24284    0.68890    0.38717    1.000
    N1589    N        0.27494    0.63768    0.47840    1.000
    Si1590   Si       0.24417    0.71216    0.46254    1.000
    N1591    N        0.25722    0.59030    0.52386    1.000
    Si1592   Si       0.24603    0.55045    0.51145    1.000
    N1593    N        0.23673    0.52496    0.60153    1.000
    Si1594   Si       0.26321    0.55707    0.61318    1.000
    N1595    N        0.27811    0.52288    0.52407    1.000
    Si1596   Si       0.25157    0.62868    0.61490    1.000
    N1597    N        0.27879    0.62959    0.58205    1.000
    N1598    N        0.26784    0.67454    0.53517    1.000
    N1599    N        0.24045    0.58812    0.62862    1.000
    N1600    N        0.24999    0.59807    0.69791    1.000
    Si1601   Si       0.25860    0.52247    0.66916    1.000
    N1602    N        0.26368    0.51900    0.71323    1.000
    Si1603   Si       0.24932    0.59481    0.74174    1.000
    Si1604   Si       0.22885    0.51863    0.73928    1.000
    Si1605   Si       0.27535    0.63228    0.68791    1.000
    N1606    N        0.28680    0.55008    0.65098    1.000
    N1607    N        0.22459    0.70360    0.74135    1.000
    N1608    N        0.26626    0.66415    0.71651    1.000
    Si1609   Si       0.25959    0.70708    0.71345    1.000
    N1610    N        0.25810    0.71894    0.66878    1.000
    N1611    N        0.26910    0.64967    0.64845    1.000
    Si1612   Si       0.28490    0.69002    0.64905    1.000
    N1613    N        0.26339    0.53564    0.82419    1.000
    N1614    N        0.24260    0.59738    0.80746    1.000
    Si1615   Si       0.26946    0.57739    0.83436    1.000
    Si1616   Si       0.22657    0.52132    0.84035    1.000
    N1617    N        0.22374    0.55877    0.75303    1.000
    Si1618   Si       0.24871    0.63937    0.81760    1.000
    N1619    N        0.26099    0.70612    0.85203    1.000
    N1620    N        0.25243    0.73897    0.79451    1.000
    N1621    N        0.26274    0.67011    0.79065    1.000
    Si1622   Si       0.24291    0.66477    0.75255    1.000
    Si1623   Si       0.27760    0.70739    0.81117    1.000
    N1624    N        0.25129    0.58210    0.87353    1.000
    N1625    N        0.22907    0.51931    0.88205    1.000
    Si1626   Si       0.26929    0.62065    0.88436    1.000
    N1627    N        0.26503    0.55803    0.93600    1.000
    Si1628   Si       0.25285    0.52525    0.96231    1.000
    Si1629   Si       0.25710    0.58749    0.96811    1.000
    Si1630   Si       0.23358    0.55605    0.90248    1.000
    N1631    N        0.23871    0.55503    0.99247    1.000
    N1632    N        0.22750    0.61587    0.95216    1.000
    Si1633   Si       0.23827    0.65554    0.94165    1.000
    Si1634   Si       0.22996    0.68139    0.87139    1.000
    N1635    N        0.24528    0.65159    0.89877    1.000
    Si1636   Si       0.26850    0.73855    0.87987    1.000
    N1637    N        0.27408    0.66597    0.96262    1.000
    N1638    N        0.26655    0.71337    0.91701    1.000
    N1639    N        0.23584    0.74306    0.96745    1.000
    Si1640   Si       0.22610    0.72277    0.92887    1.000
    N1641    N        0.25344    0.85731    0.05374    1.000
    N1642    N        0.26342    0.79167    0.07293    1.000
    N1643    N        0.22999    0.82718    0.00377    1.000
    N1644    N        0.25064    0.87524    0.12203    1.000
    Si1645   Si       0.23154    0.94503    0.03836    1.000
    Si1646   Si       0.24257    0.89228    0.08009    1.000
    N1647    N        0.24819    0.97723    0.01102    1.000
    N1648    N        0.26474    0.92484    0.05972    1.000
    Si1649   Si       0.22688    0.00854    0.03517    1.000
    N1650    N        0.26376    0.79402    0.21919    1.000
    N1651    N        0.25956    0.78197    0.14340    1.000
    N1652    N        0.25689    0.85839    0.23713    1.000
    Si1653   Si       0.26126    0.80695    0.17869    1.000
    Si1654   Si       0.27789    0.82255    0.24720    1.000
    N1655    N        0.25197    0.98610    0.12169    1.000
    N1656    N        0.25757    0.95607    0.22684    1.000
    Si1657   Si       0.26027    0.99845    0.21544    1.000
    N1658    N        0.23155    0.00218    0.18295    1.000
    Si1659   Si       0.25021    0.77432    0.30443    1.000
    N1660    N        0.26505    0.86117    0.34620    1.000
    N1661    N        0.27379    0.80871    0.28864    1.000
    N1662    N        0.22972    0.76236    0.26688    1.000
    Si1663   Si       0.23358    0.89019    0.35751    1.000
    Si1664   Si       0.24494    0.96317    0.34022    1.000
    N1665    N        0.23870    0.97595    0.29843    1.000
    N1666    N        0.23666    0.92155    0.32859    1.000
    N1667    N        0.27792    0.96998    0.36688    1.000
    N1668    N        0.27685    0.76333    0.40356    1.000
    Si1669   Si       0.27711    0.83231    0.37774    1.000
    N1670    N        0.23815    0.81742    0.39121    1.000
    N1671    N        0.25620    0.81395    0.45519    1.000
    Si1672   Si       0.24395    0.78284    0.42357    1.000
    Si1673   Si       0.27991    0.79474    0.48899    1.000
    Si1674   Si       0.24195    0.89933    0.49599    1.000
    N1675    N        0.24004    0.98636    0.42532    1.000
    N1676    N        0.26681    0.88358    0.45930    1.000
    Si1677   Si       0.24952    0.96280    0.45938    1.000
    Si1678   Si       0.27949    0.93649    0.39589    1.000
    N1679    N        0.24482    0.90868    0.39656    1.000
    Si1680   Si       0.26150    0.79410    0.54890    1.000
    N1681    N        0.24269    0.78335    0.51298    1.000
    N1682    N        0.27183    0.86557    0.61331    1.000
    N1683    N        0.26079    0.83847    0.55427    1.000
    N1684    N        0.26227    0.76368    0.58011    1.000
    Si1685   Si       0.23005    0.86587    0.62259    1.000
    Si1686   Si       0.22717    0.86503    0.54661    1.000
    N1687    N        0.22461    0.85643    0.50127    1.000
    N1688    N        0.24921    0.95529    0.57087    1.000
    Si1689   Si       0.26944    0.95845    0.52953    1.000
    Si1690   Si       0.26756    0.96600    0.60854    1.000
    N1691    N        0.27861    0.92300    0.50546    1.000
    N1692    N        0.24844    0.98113    0.49935    1.000
    Si1693   Si       0.25932    0.87147    0.71629    1.000
    N1694    N        0.26409    0.78086    0.70432    1.000
    Si1695   Si       0.26591    0.76218    0.66519    1.000
    Si1696   Si       0.22913    0.80095    0.72067    1.000
    N1697    N        0.22494    0.84590    0.72074    1.000
    Si1698   Si       0.25364    0.00209    0.74386    1.000
    Si1699   Si       0.24681    0.92048    0.66181    1.000
    N1700    N        0.26357    0.88371    0.67578    1.000
    N1701    N        0.22811    0.95432    0.68152    1.000
    N1702    N        0.25005    0.99868    0.63276    1.000
    N1703    N        0.26080    0.90730    0.74160    1.000
    Si1704   Si       0.22849    0.99614    0.67007    1.000
    N1705    N        0.28023    0.93664    0.63940    1.000
    Si1706   Si       0.25642    0.78156    0.79350    1.000
    Si1707   Si       0.26417    0.84384    0.82556    1.000
    N1708    N        0.24531    0.87472    0.85006    1.000
    N1709    N        0.23823    0.81018    0.82131    1.000
    N1710    N        0.27172    0.86719    0.79017    1.000
    N1711    N        0.22849    0.78201    0.75892    1.000
    Si1712   Si       0.24104    0.89932    0.77901    1.000
    Si1713   Si       0.25057    0.91808    0.85288    1.000
    Si1714   Si       0.23640    0.97057    0.80588    1.000
    N1715    N        0.23652    0.92832    0.81104    1.000
    N1716    N        0.27890    0.97927    0.81170    1.000
    Si1717   Si       0.26971    0.85800    0.92286    1.000
    N1718    N        0.27127    0.81904    0.90323    1.000
    N1719    N        0.27596    0.78961    0.98159    1.000
    Si1720   Si       0.23019    0.80094    0.90560    1.000
    N1721    N        0.23296    0.88058    0.91522    1.000
    Si1722   Si       0.23222    0.78810    0.98131    1.000
    N1723    N        0.28123    0.86026    0.96450    1.000
    N1724    N        0.23108    0.75867    0.89547    1.000
    Si1725   Si       0.27440    0.83219    0.99630    1.000
    Si1726   Si       0.22873    0.92337    0.92517    1.000
    N1727    N        0.26645    0.92837    0.95247    1.000
    Si1728   Si       0.26048    0.96848    0.97070    1.000
    N1729    N        0.30980    0.04279    0.08801    1.000
    Si1730   Si       0.30037    0.02119    0.05034    1.000
    N1731    N        0.29444    0.10057    0.03312    1.000
    N1732    N        0.32828    0.01798    0.01865    1.000
    Si1733   Si       0.28773    0.07204    0.11317    1.000
    Si1734   Si       0.31007    0.14140    0.04354    1.000
    N1735    N        0.30279    0.15518    0.08328    1.000
    Si1736   Si       0.30592    0.23813    0.10539    1.000
    Si1737   Si       0.33312    0.17031    0.11224    1.000
    N1738    N        0.29180    0.17440    0.02004    1.000
    N1739    N        0.34187    0.21000    0.10060    1.000
    N1740    N        0.29743    0.23834    0.00133    1.000
    Si1741   Si       0.30469    0.04219    0.17710    1.000
    N1742    N        0.30785    0.09364    0.14575    1.000
    N1743    N        0.30660    0.12903    0.20346    1.000
    Si1744   Si       0.29392    0.12816    0.24482    1.000
    N1745    N        0.33475    0.21790    0.22268    1.000
    Si1746   Si       0.29420    0.20416    0.22977    1.000
    N1747    N        0.32270    0.17120    0.15526    1.000
    N1748    N        0.28587    0.22848    0.14274    1.000
    N1749    N        0.32638    0.10895    0.26580    1.000
    Si1750   Si       0.30060    0.01673    0.27489    1.000
    N1751    N        0.28985    0.02045    0.31953    1.000
    N1752    N        0.31600    0.14677    0.34289    1.000
    Si1753   Si       0.32199    0.18988    0.34702    1.000
    N1754    N        0.29559    0.16995    0.25940    1.000
    N1755    N        0.28855    0.20627    0.32512    1.000
    Si1756   Si       0.28937    0.05534    0.39546    1.000
    N1757    N        0.29411    0.09701    0.38495    1.000
    N1758    N        0.32126    0.02930    0.38314    1.000
    N1759    N        0.30584    0.06843    0.43737    1.000
    Si1760   Si       0.30338    0.11173    0.42326    1.000
    N1761    N        0.31172    0.01124    0.46625    1.000
    Si1762   Si       0.34088    0.04488    0.45045    1.000
    N1763    N        0.33295    0.24421    0.49540    1.000
    Si1764   Si       0.31075    0.24546    0.38652    1.000
    N1765    N        0.29902    0.18831    0.46626    1.000
    N1766    N        0.31735    0.25399    0.42734    1.000
    Si1767   Si       0.32389    0.18296    0.42699    1.000
    N1768    N        0.31474    0.20123    0.38733    1.000
    N1769    N        0.33520    0.14241    0.41797    1.000
    Si1770   Si       0.32453    0.06967    0.52051    1.000
    Si1771   Si       0.33100    0.12147    0.58289    1.000
    N1772    N        0.33574    0.10630    0.54217    1.000
    N1773    N        0.33398    0.03840    0.55001    1.000
    Si1774   Si       0.30223    0.01413    0.56393    1.000
    N1775    N        0.32008    0.10584    0.62271    1.000
    N1776    N        0.28467    0.06231    0.50378    1.000
    Si1777   Si       0.32684    0.13882    0.51383    1.000
    Si1778   Si       0.31297    0.18959    0.56255    1.000
    N1779    N        0.32349    0.21208    0.59857    1.000
    N1780    N        0.29685    0.14988    0.57231    1.000
    Si1781   Si       0.31569    0.20513    0.50229    1.000
    N1782    N        0.33970    0.17868    0.52967    1.000
    N1783    N        0.28319    0.13518    0.50782    1.000
    N1784    N        0.28639    0.20807    0.53264    1.000
    Si1785   Si       0.28399    0.22157    0.61602    1.000
    N1786    N        0.31960    0.02083    0.70216    1.000
    N1787    N        0.29333    0.20065    0.72400    1.000
    Si1788   Si       0.33085    0.22288    0.73037    1.000
    Si1789   Si       0.33668    0.16673    0.68799    1.000
    N1790    N        0.32663    0.14007    0.72052    1.000
    N1791    N        0.28982    0.24254    0.65498    1.000
    Si1792   Si       0.29436    0.16021    0.74120    1.000
    N1793    N        0.31076    0.17535    0.65514    1.000
    N1794    N        0.31078    0.11782    0.83973    1.000
    Si1795   Si       0.31782    0.02991    0.84376    1.000
    N1796    N        0.33125    0.02625    0.80179    1.000
    N1797    N        0.33171    0.07866    0.75397    1.000
    Si1798   Si       0.28875    0.07220    0.75732    1.000
    Si1799   Si       0.28437    0.13005    0.80744    1.000
    N1800    N        0.30471    0.15926    0.78362    1.000
    N1801    N        0.30456    0.04507    0.90923    1.000
    Si1802   Si       0.31355    0.02414    0.97948    1.000
    Si1803   Si       0.29813    0.09514    0.99150    1.000
    N1804    N        0.28421    0.05814    0.97414    1.000
    N1805    N        0.33967    0.09913    0.98114    1.000
    N1806    N        0.31031    0.22954    0.89034    1.000
    N1807    N        0.28816    0.16795    0.88829    1.000
    N1808    N        0.33739    0.16589    0.97085    1.000
    Si1809   Si       0.32196    0.19149    0.87812    1.000
    Si1810   Si       0.29625    0.16754    0.97645    1.000
    Si1811   Si       0.33164    0.25240    0.98025    1.000
    Si1812   Si       0.33642    0.25258    0.91499    1.000
    N1813    N        0.29493    0.37351    0.04141    1.000
    N1814    N        0.29961    0.28054    0.11723    1.000
    N1815    N        0.33212    0.37312    0.09752    1.000
    Si1816   Si       0.33547    0.36760    0.05510    1.000
    N1817    N        0.31396    0.44975    0.02696    1.000
    Si1818   Si       0.30584    0.47348    0.06229    1.000
    N1819    N        0.29630    0.46433    0.10556    1.000
    Si1820   Si       0.33921    0.42499    0.00261    1.000
    Si1821   Si       0.30029    0.35925    0.12224    1.000
    N1822    N        0.32081    0.33458    0.15404    1.000
    Si1823   Si       0.31380    0.29279    0.15679    1.000
    N1824    N        0.30927    0.45128    0.17209    1.000
    Si1825   Si       0.31170    0.48287    0.14120    1.000
    N1826    N        0.28952    0.48974    0.22318    1.000
    N1827    N        0.28780    0.39735    0.13921    1.000
    Si1828   Si       0.32157    0.46165    0.21293    1.000
    N1829    N        0.33887    0.42669    0.23042    1.000
    N1830    N        0.29160    0.38627    0.20962    1.000
    Si1831   Si       0.30766    0.40784    0.17524    1.000
    Si1832   Si       0.32411    0.38522    0.23725    1.000
    N1833    N        0.31346    0.36858    0.34532    1.000
    Si1834   Si       0.33452    0.36536    0.30886    1.000
    N1835    N        0.30613    0.37670    0.27669    1.000
    Si1836   Si       0.33946    0.31300    0.25107    1.000
    N1837    N        0.29539    0.30854    0.24906    1.000
    Si1838   Si       0.29931    0.48068    0.32071    1.000
    N1839    N        0.31456    0.44194    0.30544    1.000
    N1840    N        0.33360    0.50565    0.33005    1.000
    Si1841   Si       0.28738    0.41356    0.28942    1.000
    N1842    N        0.31140    0.30496    0.47772    1.000
    Si1843   Si       0.30779    0.29718    0.43403    1.000
    N1844    N        0.30453    0.36681    0.42199    1.000
    N1845    N        0.34187    0.31470    0.41453    1.000
    Si1846   Si       0.29450    0.49773    0.49218    1.000
    N1847    N        0.30822    0.40227    0.48100    1.000
    N1848    N        0.29381    0.44342    0.42012    1.000
    Si1849   Si       0.29006    0.47942    0.39465    1.000
    N1850    N        0.33256    0.49282    0.39663    1.000
    Si1851   Si       0.31050    0.40702    0.43778    1.000
    N1852    N        0.30320    0.36158    0.58189    1.000
    N1853    N        0.30470    0.30095    0.61317    1.000
    Si1854   Si       0.31464    0.27866    0.51278    1.000
    N1855    N        0.33573    0.29293    0.54744    1.000
    Si1856   Si       0.34128    0.29951    0.59007    1.000
    Si1857   Si       0.28891    0.43082    0.50858    1.000
    Si1858   Si       0.30394    0.44711    0.58411    1.000
    N1859    N        0.29213    0.42241    0.55154    1.000
    N1860    N        0.28818    0.48721    0.58164    1.000
    N1861    N        0.31844    0.46403    0.50183    1.000
    N1862    N        0.29244    0.42613    0.62351    1.000
    N1863    N        0.33132    0.26642    0.72840    1.000
    N1864    N        0.29775    0.30703    0.68357    1.000
    Si1865   Si       0.29399    0.28769    0.72061    1.000
    Si1866   Si       0.29765    0.35033    0.68277    1.000
    N1867    N        0.33268    0.37922    0.67429    1.000
    Si1868   Si       0.28523    0.28518    0.64941    1.000
    Si1869   Si       0.31155    0.38985    0.63414    1.000
    N1870    N        0.33274    0.41501    0.73389    1.000
    Si1871   Si       0.29082    0.40387    0.73867    1.000
    N1872    N        0.31445    0.48232    0.71453    1.000
    N1873    N        0.30525    0.32912    0.81637    1.000
    N1874    N        0.33354    0.37662    0.86401    1.000
    Si1875   Si       0.28653    0.34576    0.78225    1.000
    N1876    N        0.29879    0.38819    0.77870    1.000
    N1877    N        0.33011    0.43484    0.80329    1.000
    Si1878   Si       0.29377    0.45984    0.86561    1.000
    N1879    N        0.29072    0.47613    0.82410    1.000
    Si1880   Si       0.34294    0.46721    0.82827    1.000
    N1881    N        0.31324    0.32944    0.98632    1.000
    N1882    N        0.32592    0.32596    0.91588    1.000
    N1883    N        0.30377    0.26918    0.94187    1.000
    Si1884   Si       0.28993    0.30225    0.91654    1.000
    Si1885   Si       0.29229    0.38532    0.87740    1.000
    Si1886   Si       0.33774    0.34795    0.95252    1.000
    Si1887   Si       0.29608    0.36755    0.99932    1.000
    N1888    N        0.31673    0.44759    0.96337    1.000
    N1889    N        0.33785    0.46131    0.87094    1.000
    N1890    N        0.33003    0.38744    0.97852    1.000
    N1891    N        0.30066    0.40423    0.91647    1.000
    N1892    N        0.28650    0.50020    0.97170    1.000
    Si1893   Si       0.33691    0.41026    0.94025    1.000
    Si1894   Si       0.31094    0.48376    0.93930    1.000
    Si1895   Si       0.28751    0.46377    0.99570    1.000
    N1896    N        0.31723    0.54982    0.02783    1.000
    N1897    N        0.30617    0.54096    0.08829    1.000
    Si1898   Si       0.34063    0.53631    0.06085    1.000
    N1899    N        0.30046    0.69045    0.09251    1.000
    Si1900   Si       0.30166    0.70039    0.05027    1.000
    Si1901   Si       0.33196    0.66950    0.11393    1.000
    N1902    N        0.34248    0.70429    0.03479    1.000
    N1903    N        0.31385    0.61278    0.19271    1.000
    Si1904   Si       0.30020    0.55312    0.12892    1.000
    N1905    N        0.33753    0.57322    0.13770    1.000
    N1906    N        0.28794    0.51815    0.15416    1.000
    Si1907   Si       0.31143    0.71031    0.21900    1.000
    N1908    N        0.33576    0.68237    0.24293    1.000
    N1909    N        0.29251    0.64531    0.13705    1.000
    Si1910   Si       0.31037    0.65185    0.17558    1.000
    N1911    N        0.30628    0.73745    0.18152    1.000
    N1912    N        0.28719    0.68032    0.19748    1.000
    Si1913   Si       0.32406    0.59772    0.31413    1.000
    Si1914   Si       0.29637    0.53877    0.26864    1.000
    N1915    N        0.28992    0.56995    0.30250    1.000
    N1916    N        0.34138    0.53693    0.26951    1.000
    N1917    N        0.31577    0.62978    0.34155    1.000
    Si1918   Si       0.31532    0.65506    0.26886    1.000
    Si1919   Si       0.30649    0.72499    0.29216    1.000
    N1920    N        0.30180    0.68266    0.29889    1.000
    N1921    N        0.29262    0.73524    0.25072    1.000
    Si1922   Si       0.28610    0.66118    0.33521    1.000
    N1923    N        0.30434    0.57266    0.42564    1.000
    N1924    N        0.31367    0.51756    0.45979    1.000
    N1925    N        0.28366    0.70459    0.47775    1.000
    N1926    N        0.33679    0.72398    0.43607    1.000
    Si1927   Si       0.31832    0.72815    0.47571    1.000
    N1928    N        0.29945    0.63849    0.40743    1.000
    Si1929   Si       0.33340    0.64380    0.38190    1.000
    N1930    N        0.32355    0.73992    0.37242    1.000
    N1931    N        0.32625    0.60282    0.53500    1.000
    Si1932   Si       0.30028    0.52420    0.56347    1.000
    N1933    N        0.29007    0.56244    0.58130    1.000
    Si1934   Si       0.28879    0.59779    0.55408    1.000
    N1935    N        0.34151    0.52422    0.55510    1.000
    Si1936   Si       0.29626    0.74214    0.59905    1.000
    N1937    N        0.33476    0.67707    0.56550    1.000
    Si1938   Si       0.29270    0.67064    0.57291    1.000
    N1939    N        0.33538    0.72930    0.51434    1.000
    N1940    N        0.33526    0.75075    0.57959    1.000
    N1941    N        0.33550    0.66001    0.50139    1.000
    Si1942   Si       0.29214    0.66929    0.49983    1.000
    N1943    N        0.28779    0.70062    0.60579    1.000
    N1944    N        0.32706    0.55531    0.70985    1.000
    N1945    N        0.31494    0.61506    0.68479    1.000
    Si1946   Si       0.32543    0.59528    0.72734    1.000
    Si1947   Si       0.32035    0.57150    0.66876    1.000
    Si1948   Si       0.30394    0.52389    0.72809    1.000
    Si1949   Si       0.33875    0.64765    0.66946    1.000
    N1950    N        0.31818    0.68550    0.67613    1.000
    N1951    N        0.29424    0.72730    0.73060    1.000
    Si1952   Si       0.32855    0.70313    0.71557    1.000
    N1953    N        0.31248    0.58123    0.82753    1.000
    Si1954   Si       0.32333    0.62319    0.83300    1.000
    N1955    N        0.30589    0.52056    0.77176    1.000
    Si1956   Si       0.33789    0.55079    0.84560    1.000
    N1957    N        0.28979    0.59993    0.75087    1.000
    N1958    N        0.28341    0.63382    0.84512    1.000
    Si1959   Si       0.33644    0.74438    0.84854    1.000
    N1960    N        0.32182    0.71940    0.81270    1.000
    N1961    N        0.29216    0.60459    0.98795    1.000
    N1962    N        0.31933    0.54543    0.88407    1.000
    N1963    N        0.30255    0.60969    0.91004    1.000
    Si1964   Si       0.30460    0.56742    0.91888    1.000
    N1965    N        0.33252    0.56016    0.95332    1.000
    Si1966   Si       0.32590    0.57832    0.99305    1.000
    Si1967   Si       0.29674    0.64787    0.99488    1.000
    Si1968   Si       0.29993    0.69356    0.93809    1.000
    N1969    N        0.33641    0.66133    0.98399    1.000
    N1970    N        0.32740    0.67597    0.91188    1.000
    N1971    N        0.31424    0.72276    0.96811    1.000
    Si1972   Si       0.30135    0.75678    0.99353    1.000
    Si1973   Si       0.33646    0.63517    0.90651    1.000
    N1974    N        0.30633    0.83051    0.02645    1.000
    N1975    N        0.29994    0.83172    0.10440    1.000
    Si1976   Si       0.28729    0.79130    0.11096    1.000
    N1977    N        0.32303    0.77017    0.11750    1.000
    Si1978   Si       0.28582    0.82954    0.06413    1.000
    N1979    N        0.29645    0.98507    0.07180    1.000
    N1980    N        0.33295    0.94836    0.02879    1.000
    Si1981   Si       0.30434    0.94481    0.06394    1.000
    Si1982   Si       0.29078    0.00497    0.11101    1.000
    N1983    N        0.34056    0.93005    0.08742    1.000
    Si1984   Si       0.28753    0.85919    0.13548    1.000
    N1985    N        0.29162    0.83634    0.17105    1.000
    Si1986   Si       0.32753    0.83239    0.19689    1.000
    N1987    N        0.32174    0.82663    0.24039    1.000
    Si1988   Si       0.33210    0.76285    0.16022    1.000
    Si1989   Si       0.32736    0.97840    0.17446    1.000
    N1990    N        0.31668    0.94102    0.19203    1.000
    Si1991   Si       0.29767    0.94522    0.23288    1.000
    Si1992   Si       0.33433    0.90631    0.17399    1.000
    N1993    N        0.32141    0.98225    0.13205    1.000
    N1994    N        0.29958    0.00333    0.19692    1.000
    N1995    N        0.31655    0.88969    0.13926    1.000
    N1996    N        0.30103    0.80595    0.35277    1.000
    N1997    N        0.33160    0.84666    0.30501    1.000
    Si1998   Si       0.29288    0.83314    0.31902    1.000
    Si1999   Si       0.33308    0.78129    0.36645    1.000
    N2000    N        0.30732    0.97407    0.26668    1.000
    Si2001   Si       0.30597    0.00031    0.35502    1.000
    N2002    N        0.32653    0.91677    0.25347    1.000
    N2003    N        0.34412    0.97816    0.35461    1.000
    N2004    N        0.29950    0.84955    0.40905    1.000
    N2005    N        0.30826    0.83365    0.48630    1.000
    N2006    N        0.30220    0.76605    0.46633    1.000
    Si2007   Si       0.32944    0.88100    0.40406    1.000
    Si2008   Si       0.31430    0.76082    0.42481    1.000
    Si2009   Si       0.28783    0.84692    0.44954    1.000
    Si2010   Si       0.32241    0.97191    0.45242    1.000
    N2011    N        0.28682    0.94714    0.44046    1.000
    Si2012   Si       0.29873    0.91284    0.46799    1.000
    N2013    N        0.31423    0.91560    0.38168    1.000
    N2014    N        0.33145    0.89342    0.44601    1.000
    N2015    N        0.33818    0.94433    0.48165    1.000
    N2016    N        0.30097    0.79121    0.52962    1.000
    N2017    N        0.31425    0.81666    0.59714    1.000
    N2018    N        0.32838    0.86177    0.54927    1.000
    Si2019   Si       0.32774    0.82658    0.52331    1.000
    Si2020   Si       0.29442    0.84927    0.57952    1.000
    Si2021   Si       0.33339    0.76445    0.53892    1.000
    N2022    N        0.30513    0.97827    0.53891    1.000
    N2023    N        0.30361    0.99440    0.60343    1.000
    Si2024   Si       0.32389    0.79986    0.63453    1.000
    Si2025   Si       0.32453    0.83132    0.70676    1.000
    N2026    N        0.30702    0.82708    0.66424    1.000
    N2027    N        0.29575    0.85306    0.72959    1.000
    Si2028   Si       0.29553    0.86557    0.65036    1.000
    N2029    N        0.32890    0.79011    0.72083    1.000
    Si2030   Si       0.29359    0.77143    0.73592    1.000
    N2031    N        0.30071    0.76320    0.63781    1.000
    Si2032   Si       0.31842    0.93391    0.65926    1.000
    N2033    N        0.33132    0.89194    0.65423    1.000
    Si2034   Si       0.29532    0.93206    0.73856    1.000
    N2035    N        0.31417    0.94326    0.70088    1.000
    Si2036   Si       0.32599    0.98098    0.71995    1.000
    N2037    N        0.29121    0.97520    0.74844    1.000
    Si2038   Si       0.30732    0.87118    0.76664    1.000
    N2039    N        0.29626    0.78633    0.77698    1.000
    Si2040   Si       0.32498    0.80570    0.80321    1.000
    N2041    N        0.30016    0.82083    0.83832    1.000
    N2042    N        0.33791    0.84427    0.78652    1.000
    N2043    N        0.32588    0.90956    0.76012    1.000
    Si2044   Si       0.31265    0.95944    0.83219    1.000
    N2045    N        0.33008    0.98948    0.85592    1.000
    N2046    N        0.29222    0.92928    0.85574    1.000
    Si2047   Si       0.29947    0.00465    0.78444    1.000
    N2048    N        0.30278    0.76075    0.87215    1.000
    Si2049   Si       0.30380    0.80368    0.87803    1.000
    N2050    N        0.30202    0.88501    0.91168    1.000
    Si2051   Si       0.31870    0.91346    0.88646    1.000
    N2052    N        0.33686    0.94590    0.90841    1.000
    Si2053   Si       0.29973    0.89859    0.95498    1.000
    N2054    N        0.28948    0.99817    0.95848    1.000
    N2055    N        0.37426    0.06653    0.11831    1.000
    Si2056   Si       0.39688    0.02894    0.12003    1.000
    N2057    N        0.39842    0.06589    0.99802    1.000
    N2058    N        0.36841    0.14535    0.10484    1.000
    Si2059   Si       0.38313    0.21819    0.08939    1.000
    Si2060   Si       0.38480    0.14711    0.06384    1.000
    N2061    N        0.35291    0.14500    0.03622    1.000
    N2062    N        0.39166    0.25656    0.06825    1.000
    N2063    N        0.34824    0.04914    0.17773    1.000
    Si2064   Si       0.38462    0.02480    0.18823    1.000
    Si2065   Si       0.35287    0.08351    0.15154    1.000
    N2066    N        0.37084    0.11981    0.16739    1.000
    Si2067   Si       0.37370    0.19904    0.23053    1.000
    N2068    N        0.39702    0.23860    0.12688    1.000
    N2069    N        0.36447    0.15729    0.22565    1.000
    Si2070   Si       0.35885    0.25228    0.20779    1.000
    Si2071   Si       0.39787    0.13939    0.13834    1.000
    N2072    N        0.39090    0.22047    0.19604    1.000
    Si2073   Si       0.34356    0.14795    0.18799    1.000
    N2074    N        0.36000    0.08378    0.32542    1.000
    N2075    N        0.38770    0.09332    0.26413    1.000
    Si2076   Si       0.35056    0.07695    0.28252    1.000
    Si2077   Si       0.35463    0.12652    0.33459    1.000
    Si2078   Si       0.37820    0.01509    0.26829    1.000
    N2079    N        0.38386    0.13223    0.36536    1.000
    Si2080   Si       0.36426    0.12994    0.25977    1.000
    N2081    N        0.34010    0.03555    0.27006    1.000
    N2082    N        0.39104    0.21567    0.26940    1.000
    Si2083   Si       0.38868    0.18647    0.30427    1.000
    N2084    N        0.36268    0.20577    0.33210    1.000
    N2085    N        0.36950    0.15014    0.29937    1.000
    Si2086   Si       0.37938    0.24507    0.34200    1.000
    Si2087   Si       0.37740    0.09886    0.47516    1.000
    N2088    N        0.37209    0.03408    0.42346    1.000
    N2089    N        0.38404    0.09612    0.43066    1.000
    N2090    N        0.35166    0.06652    0.48641    1.000
    Si2091   Si       0.37714    0.13218    0.40955    1.000
    N2092    N        0.35845    0.13665    0.48283    1.000
    Si2093   Si       0.37990    0.17352    0.46594    1.000
    N2094    N        0.35796    0.20318    0.44633    1.000
    Si2095   Si       0.34881    0.24351    0.45558    1.000
    N2096    N        0.39876    0.19487    0.49771    1.000
    N2097    N        0.37903    0.09797    0.60881    1.000
    Si2098   Si       0.37192    0.01655    0.55090    1.000
    Si2099   Si       0.39770    0.13608    0.59319    1.000
    Si2100   Si       0.38354    0.18374    0.53717    1.000
    Si2101   Si       0.36395    0.23115    0.59841    1.000
    N2102    N        0.35773    0.15732    0.59364    1.000
    N2103    N        0.39097    0.21485    0.56661    1.000
    N2104    N        0.39042    0.02179    0.69242    1.000
    Si2105   Si       0.35073    0.10283    0.72143    1.000
    N2106    N        0.35828    0.02393    0.63824    1.000
    Si2107   Si       0.35180    0.04044    0.67849    1.000
    Si2108   Si       0.35691    0.10652    0.64546    1.000
    N2109    N        0.35206    0.08347    0.68267    1.000
    N2110    N        0.38822    0.11591    0.74225    1.000
    N2111    N        0.37267    0.21027    0.63532    1.000
    N2112    N        0.35514    0.20315    0.69986    1.000
    N2113    N        0.36684    0.14999    0.65949    1.000
    Si2114   Si       0.38625    0.22055    0.67507    1.000
    Si2115   Si       0.34441    0.17943    0.62839    1.000
    N2116    N        0.37370    0.08531    0.80948    1.000
    Si2117   Si       0.35682    0.05557    0.78053    1.000
    N2118    N        0.38617    0.03334    0.75975    1.000
    Si2119   Si       0.34867    0.09758    0.84158    1.000
    Si2120   Si       0.38855    0.11859    0.78370    1.000
    N2121    N        0.34301    0.05859    0.86295    1.000
    N2122    N        0.37325    0.12195    0.86824    1.000
    Si2123   Si       0.37618    0.24643    0.78555    1.000
    N2124    N        0.38191    0.15880    0.79794    1.000
    N2125    N        0.34761    0.21673    0.77167    1.000
    Si2126   Si       0.37566    0.16657    0.86636    1.000
    Si2127   Si       0.34203    0.18016    0.79781    1.000
    N2128    N        0.34463    0.18524    0.84080    1.000
    Si2129   Si       0.34870    0.04382    0.90537    1.000
    N2130    N        0.37712    0.07648    0.92350    1.000
    Si2131   Si       0.36900    0.07198    0.96541    1.000
    N2132    N        0.34960    0.03429    0.95885    1.000
    N2133    N        0.37080    0.00498    0.90731    1.000
    N2134    N        0.35209    0.22989    0.95137    1.000
    Si2135   Si       0.35771    0.13770    0.99535    1.000
    Si2136   Si       0.36327    0.18913    0.94528    1.000
    N2137    N        0.35710    0.18178    0.90281    1.000
    N2138    N        0.36395    0.33533    0.04106    1.000
    Si2139   Si       0.34873    0.31580    0.00523    1.000
    N2140    N        0.35576    0.27393    0.00864    1.000
    Si2141   Si       0.39238    0.26318    0.02604    1.000
    N2142    N        0.39261    0.30632    0.11640    1.000
    Si2143   Si       0.36662    0.47978    0.10472    1.000
    N2144    N        0.35774    0.40002    0.03695    1.000
    N2145    N        0.36693    0.43817    0.11156    1.000
    Si2146   Si       0.39826    0.41061    0.02704    1.000
    N2147    N        0.34411    0.49163    0.06892    1.000
    N2148    N        0.36407    0.27839    0.24269    1.000
    N2149    N        0.34980    0.27634    0.17265    1.000
    Si2150   Si       0.34981    0.35116    0.18368    1.000
    Si2151   Si       0.38878    0.29637    0.15850    1.000
    N2152    N        0.39001    0.33619    0.17695    1.000
    N2153    N        0.34607    0.34812    0.22576    1.000
    N2154    N        0.34887    0.39469    0.16792    1.000
    Si2155   Si       0.35732    0.39739    0.12544    1.000
    Si2156   Si       0.38350    0.44407    0.23217    1.000
    N2157    N        0.36079    0.47825    0.20743    1.000
    N2158    N        0.35156    0.49726    0.14067    1.000
    N2159    N        0.38819    0.27443    0.31023    1.000
    Si2160   Si       0.38991    0.31903    0.30382    1.000
    N2161    N        0.34880    0.32722    0.29234    1.000
    N2162    N        0.34652    0.25941    0.36831    1.000
    Si2163   Si       0.39626    0.25749    0.26946    1.000
    N2164    N        0.37854    0.45924    0.27373    1.000
    N2165    N        0.36687    0.39296    0.29842    1.000
    N2166    N        0.37166    0.44545    0.34610    1.000
    Si2167   Si       0.35793    0.43554    0.30621    1.000
    Si2168   Si       0.35616    0.48382    0.36088    1.000
    N2169    N        0.36626    0.35452    0.46559    1.000
    N2170    N        0.38418    0.36679    0.39755    1.000
    Si2171   Si       0.36682    0.28101    0.40117    1.000
    N2172    N        0.38338    0.26608    0.43862    1.000
    Si2173   Si       0.34874    0.35752    0.42333    1.000
    N2174    N        0.40281    0.29605    0.38461    1.000
    Si2175   Si       0.34741    0.38474    0.49183    1.000
    N2176    N        0.39656    0.49498    0.37141    1.000
    Si2177   Si       0.36087    0.45940    0.49471    1.000
    N2178    N        0.35314    0.40806    0.43338    1.000
    N2179    N        0.37329    0.47843    0.45687    1.000
    Si2180   Si       0.39612    0.39973    0.42396    1.000
    N2181    N        0.37433    0.41783    0.50321    1.000
    N2182    N        0.37117    0.33073    0.57879    1.000
    N2183    N        0.37002    0.27204    0.60595    1.000
    Si2184   Si       0.36172    0.32366    0.53269    1.000
    Si2185   Si       0.34857    0.37053    0.57584    1.000
    N2186    N        0.34516    0.36474    0.53087    1.000
    N2187    N        0.39698    0.31079    0.50867    1.000
    N2188    N        0.35104    0.38941    0.61730    1.000
    Si2189   Si       0.36603    0.48891    0.56651    1.000
    N2190    N        0.38442    0.47579    0.52856    1.000
    Si2191   Si       0.37298    0.42367    0.60421    1.000
    N2192    N        0.39276    0.39908    0.57352    1.000
    N2193    N        0.34771    0.45411    0.58565    1.000
    Si2194   Si       0.37172    0.36512    0.65275    1.000
    N2195    N        0.36960    0.32387    0.64982    1.000
    Si2196   Si       0.37222    0.28404    0.71886    1.000
    N2197    N        0.37820    0.32488    0.71915    1.000
    Si2198   Si       0.38615    0.28666    0.64420    1.000
    N2199    N        0.38622    0.26225    0.68098    1.000
    N2200    N        0.39511    0.38495    0.69037    1.000
    Si2201   Si       0.34465    0.45764    0.73159    1.000
    Si2202   Si       0.39502    0.46709    0.67032    1.000
    N2203    N        0.39709    0.43675    0.63964    1.000
    Si2204   Si       0.35696    0.40541    0.69863    1.000
    N2205    N        0.36892    0.44809    0.69846    1.000
    N2206    N        0.38219    0.50675    0.66026    1.000
    Si2207   Si       0.37342    0.27859    0.85444    1.000
    N2208    N        0.36356    0.37028    0.79772    1.000
    N2209    N        0.36099    0.31974    0.85681    1.000
    N2210    N        0.39584    0.26904    0.75210    1.000
    N2211    N        0.35673    0.26364    0.81940    1.000
    Si2212   Si       0.34256    0.34768    0.82926    1.000
    N2213    N        0.38902    0.46388    0.82094    1.000
    N2214    N        0.36489    0.48253    0.76161    1.000
    N2215    N        0.38722    0.41990    0.76585    1.000
    Si2216   Si       0.39632    0.45948    0.77730    1.000
    Si2217   Si       0.38951    0.51161    0.84082    1.000
    Si2218   Si       0.34271    0.40374    0.77558    1.000
    Si2219   Si       0.35693    0.34831    0.88991    1.000
    N2220    N        0.36071    0.37499    0.92577    1.000
    N2221    N        0.37182    0.32448    0.96877    1.000
    N2222    N        0.37358    0.26355    0.89593    1.000
    N2223    N        0.40008    0.35807    0.88112    1.000
    N2224    N        0.34943    0.49899    0.93143    1.000
    N2225    N        0.39913    0.48825    0.87711    1.000
    N2226    N        0.37297    0.43489    0.92549    1.000
    Si2227   Si       0.39673    0.39713    0.91070    1.000
    N2228    N        0.38295    0.43611    0.99381    1.000
    Si2229   Si       0.36691    0.47047    0.90038    1.000
    N2230    N        0.38240    0.54871    0.05507    1.000
    Si2231   Si       0.39290    0.56394    0.01501    1.000
    N2232    N        0.38970    0.62047    0.11109    1.000
    N2233    N        0.36417    0.59661    0.99906    1.000
    N2234    N        0.36900    0.68034    0.09288    1.000
    Si2235   Si       0.37828    0.70925    0.06035    1.000
    N2236    N        0.38072    0.75181    0.06838    1.000
    Si2237   Si       0.37931    0.58481    0.13016    1.000
    N2238    N        0.38509    0.59508    0.17334    1.000
    Si2239   Si       0.37135    0.54035    0.23790    1.000
    N2240    N        0.35194    0.54292    0.19782    1.000
    N2241    N        0.39028    0.57938    0.24268    1.000
    Si2242   Si       0.36904    0.50764    0.17846    1.000
    Si2243   Si       0.34286    0.58217    0.18260    1.000
    Si2244   Si       0.37896    0.68100    0.23464    1.000
    N2245    N        0.38251    0.71087    0.20267    1.000
    N2246    N        0.36813    0.74029    0.14383    1.000
    N2247    N        0.38687    0.63916    0.22862    1.000
    N2248    N        0.34456    0.67192    0.15708    1.000
    Si2249   Si       0.37549    0.70037    0.16100    1.000
    Si2250   Si       0.38151    0.61600    0.26609    1.000
    Si2251   Si       0.35746    0.53493    0.30842    1.000
    N2252    N        0.35517    0.57302    0.33082    1.000
    N2253    N        0.39793    0.52081    0.30851    1.000
    Si2254   Si       0.37812    0.58857    0.36611    1.000
    N2255    N        0.39974    0.62297    0.35164    1.000
    N2256    N        0.34168    0.62181    0.28059    1.000
    N2257    N        0.34415    0.74207    0.29955    1.000
    N2258    N        0.36710    0.54411    0.42572    1.000
    N2259    N        0.35546    0.60907    0.39683    1.000
    N2260    N        0.36628    0.60287    0.46756    1.000
    Si2261   Si       0.34735    0.58313    0.43197    1.000
    Si2262   Si       0.34665    0.50618    0.43598    1.000
    Si2263   Si       0.35656    0.71729    0.39646    1.000
    N2264    N        0.39181    0.74032    0.40063    1.000
    N2265    N        0.36114    0.67670    0.38341    1.000
    Si2266   Si       0.39697    0.65169    0.38584    1.000
    N2267    N        0.40342    0.75672    0.47870    1.000
    N2268    N        0.38509    0.58851    0.58908    1.000
    Si2269   Si       0.37004    0.55115    0.57097    1.000
    Si2270   Si       0.35295    0.61998    0.50679    1.000
    N2271    N        0.38942    0.51730    0.59036    1.000
    N2272    N        0.39934    0.55840    0.53623    1.000
    N2273    N        0.38909    0.63217    0.53104    1.000
    Si2274   Si       0.35827    0.67585    0.60118    1.000
    Si2275   Si       0.36752    0.75107    0.60891    1.000
    N2276    N        0.39471    0.70113    0.52470    1.000
    Si2277   Si       0.35199    0.69058    0.52656    1.000
    N2278    N        0.40046    0.67654    0.58783    1.000
    Si2279   Si       0.37743    0.60727    0.62863    1.000
    Si2280   Si       0.39009    0.54736    0.66805    1.000
    N2281    N        0.36094    0.57518    0.65200    1.000
    N2282    N        0.36315    0.61185    0.74078    1.000
    Si2283   Si       0.39012    0.57756    0.74196    1.000
    N2284    N        0.37446    0.66283    0.68729    1.000
    N2285    N        0.35924    0.73127    0.70026    1.000
    Si2286   Si       0.36861    0.70289    0.66963    1.000
    N2287    N        0.35715    0.71069    0.62715    1.000
    N2288    N        0.34966    0.64142    0.62919    1.000
    N2289    N        0.38328    0.55481    0.85109    1.000
    N2290    N        0.36949    0.55440    0.77066    1.000
    N2291    N        0.35156    0.62171    0.86649    1.000
    Si2292   Si       0.34785    0.51780    0.78077    1.000
    Si2293   Si       0.39392    0.62457    0.85418    1.000
    N2294    N        0.34866    0.51186    0.82453    1.000
    Si2295   Si       0.36542    0.65140    0.76581    1.000
    N2296    N        0.39254    0.71725    0.80106    1.000
    Si2297   Si       0.35273    0.71939    0.78070    1.000
    N2298    N        0.36886    0.75517    0.76247    1.000
    N2299    N        0.34725    0.68683    0.75122    1.000
    N2300    N        0.34347    0.64100    0.79995    1.000
    Si2301   Si       0.36799    0.53603    0.94855    1.000
    N2302    N        0.38695    0.52886    0.98633    1.000
    N2303    N        0.37076    0.62505    0.93540    1.000
    Si2304   Si       0.37016    0.63449    0.97858    1.000
    N2305    N        0.37061    0.73211    0.87702    1.000
    Si2306   Si       0.39438    0.75477    0.90691    1.000
    Si2307   Si       0.34585    0.70343    0.99042    1.000
    N2308    N        0.38363    0.71898    0.97873    1.000
    N2309    N        0.37287    0.81833    0.04293    1.000
    Si2310   Si       0.38206    0.85723    0.05712    1.000
    N2311    N        0.37833    0.86738    0.10014    1.000
    Si2312   Si       0.36666    0.76456    0.10793    1.000
    Si2313   Si       0.34505    0.81552    0.01002    1.000
    N2314    N        0.35806    0.88249    0.03214    1.000
    N2315    N        0.38770    0.79862    0.12098    1.000
    Si2316   Si       0.36031    0.92194    0.04831    1.000
    N2317    N        0.38738    0.98836    0.10324    1.000
    Si2318   Si       0.35489    0.98482    0.01165    1.000
    N2319    N        0.39303    0.00061    0.02947    1.000
    Si2320   Si       0.35119    0.89695    0.11561    1.000
    Si2321   Si       0.35553    0.96144    0.11668    1.000
    N2322    N        0.40206    0.93713    0.05234    1.000
    N2323    N        0.34928    0.79824    0.17981    1.000
    Si2324   Si       0.39091    0.80131    0.16489    1.000
    N2325    N        0.34478    0.87318    0.20103    1.000
    N2326    N        0.38856    0.92750    0.21947    1.000
    Si2327   Si       0.35942    0.89775    0.23551    1.000
    N2328    N        0.36445    0.92719    0.14635    1.000
    Si2329   Si       0.39145    0.94597    0.17772    1.000
    N2330    N        0.37011    0.98416    0.18012    1.000
    N2331    N        0.38175    0.80082    0.27799    1.000
    N2332    N        0.37241    0.78590    0.34823    1.000
    N2333    N        0.37514    0.87310    0.26591    1.000
    Si2334   Si       0.35408    0.83341    0.26860    1.000
    Si2335   Si       0.37675    0.76989    0.30794    1.000
    N2336    N        0.39167    0.86971    0.33029    1.000
    Si2337   Si       0.35703    0.88159    0.30588    1.000
    N2338    N        0.37689    0.97017    0.27028    1.000
    N2339    N        0.34685    0.92263    0.31636    1.000
    Si2340   Si       0.34431    0.93626    0.35678    1.000
    Si2341   Si       0.34119    0.94936    0.28231    1.000
    Si2342   Si       0.39595    0.87690    0.37319    1.000
    N2343    N        0.36531    0.85557    0.39703    1.000
    Si2344   Si       0.37209    0.81972    0.42154    1.000
    N2345    N        0.38016    0.82711    0.46270    1.000
    Si2346   Si       0.38904    0.79376    0.49409    1.000
    N2347    N        0.34225    0.78975    0.41057    1.000
    N2348    N        0.34854    0.96832    0.41925    1.000
    N2349    N        0.39624    0.92140    0.44137    1.000
    N2350    N        0.37800    0.91946    0.37672    1.000
    Si2351   Si       0.36501    0.91062    0.46804    1.000
    Si2352   Si       0.38506    0.94774    0.40958    1.000
    Si2353   Si       0.35759    0.00526    0.39324    1.000
    N2354    N        0.36073    0.79690    0.52599    1.000
    N2355    N        0.39617    0.87247    0.56521    1.000
    N2356    N        0.38226    0.88280    0.49718    1.000
    Si2357   Si       0.36506    0.88540    0.53668    1.000
    N2358    N        0.37666    0.98884    0.51708    1.000
    N2359    N        0.36995    0.98701    0.58096    1.000
    N2360    N        0.36064    0.92886    0.54577    1.000
    Si2361   Si       0.39138    0.95063    0.56966    1.000
    Si2362   Si       0.34233    0.96071    0.52212    1.000
    Si2363   Si       0.34484    0.99074    0.61523    1.000
    N2364    N        0.40111    0.92809    0.60528    1.000
    Si2365   Si       0.36567    0.76864    0.71989    1.000
    N2366    N        0.36162    0.85143    0.70260    1.000
    Si2367   Si       0.37075    0.87881    0.66839    1.000
    N2368    N        0.38533    0.85910    0.63128    1.000
    N2369    N        0.36478    0.78752    0.63291    1.000
    Si2370   Si       0.39811    0.81602    0.62756    1.000
    Si2371   Si       0.39794    0.84133    0.72514    1.000
    Si2372   Si       0.39678    0.99994    0.73271    1.000
    N2373    N        0.36374    0.97194    0.73984    1.000
    Si2374   Si       0.39080    0.94391    0.64605    1.000
    N2375    N        0.39561    0.91425    0.67818    1.000
    N2376    N        0.35013    0.95641    0.64156    1.000
    Si2377   Si       0.37439    0.85698    0.80275    1.000
    N2378    N        0.38156    0.83736    0.84030    1.000
    N2379    N        0.35308    0.78045    0.82988    1.000
    Si2380   Si       0.39286    0.79487    0.84229    1.000
    N2381    N        0.39014    0.89729    0.80630    1.000
    Si2382   Si       0.37249    0.92258    0.83734    1.000
    Si2383   Si       0.36248    0.93413    0.76709    1.000
    N2384    N        0.39131    0.95224    0.86429    1.000
    N2385    N        0.35134    0.89429    0.86405    1.000
    N2386    N        0.34792    0.94792    0.80693    1.000
    N2387    N        0.40018    0.92076    0.74789    1.000
    Si2388   Si       0.37853    0.76269    0.97714    1.000
    Si2389   Si       0.36394    0.85392    0.87752    1.000
    N2390    N        0.39158    0.84922    0.91069    1.000
    N2391    N        0.36228    0.83659    0.97506    1.000
    N2392    N        0.37782    0.77789    0.93895    1.000
    Si2393   Si       0.36461    0.82065    0.93299    1.000
    Si2394   Si       0.36937    0.87800    0.98923    1.000
    N2395    N        0.33886    0.82042    0.89612    1.000
    N2396    N        0.34083    0.77375    0.99895    1.000
    Si2397   Si       0.36202    0.93561    0.94419    1.000
    N2398    N        0.36430    0.96929    0.97143    1.000
    Si2399   Si       0.35901    0.97336    0.88195    1.000
    Si2400   Si       0.37935    0.00323    0.94867    1.000
    N2401    N        0.40147    0.92908    0.92745    1.000
    N2402    N        0.34296    0.90190    0.96419    1.000
    Si2403   Si       0.41783    0.10090    0.01628    1.000
    N2404    N        0.42308    0.04470    0.08547    1.000
    Si2405   Si       0.45586    0.02561    0.06441    1.000
    Si2406   Si       0.41600    0.02615    0.00203    1.000
    N2407    N        0.45376    0.03461    0.02295    1.000
    Si2408   Si       0.40641    0.08521    0.09253    1.000
    N2409    N        0.40752    0.11080    0.05639    1.000
    Si2410   Si       0.43763    0.20634    0.04156    1.000
    N2411    N        0.41353    0.22825    0.01258    1.000
    N2412    N        0.40593    0.18618    0.06762    1.000
    N2413    N        0.42698    0.11056    0.12275    1.000
    N2414    N        0.44569    0.10798    0.19161    1.000
    N2415    N        0.41767    0.02804    0.15965    1.000
    Si2416   Si       0.44103    0.03327    0.24210    1.000
    Si2417   Si       0.45932    0.10507    0.14940    1.000
    Si2418   Si       0.46134    0.02941    0.16547    1.000
    N2419    N        0.40046    0.02665    0.22840    1.000
    N2420    N        0.45918    0.22338    0.15023    1.000
    N2421    N        0.41663    0.17479    0.14892    1.000
    Si2422   Si       0.41517    0.21813    0.15972    1.000
    Si2423   Si       0.46144    0.13406    0.22121    1.000
    Si2424   Si       0.42848    0.10344    0.27549    1.000
    N2425    N        0.42750    0.10377    0.31831    1.000
    N2426    N        0.45428    0.07245    0.25968    1.000
    N2427    N        0.41135    0.05742    0.37010    1.000
    Si2428   Si       0.43703    0.01102    0.31280    1.000
    Si2429   Si       0.40149    0.06807    0.33033    1.000
    N2430    N        0.40035    0.03254    0.30223    1.000
    Si2431   Si       0.42329    0.13710    0.34821    1.000
    N2432    N        0.44203    0.14080    0.26111    1.000
    N2433    N        0.42739    0.17605    0.32504    1.000
    N2434    N        0.41940    0.23669    0.35892    1.000
    Si2435   Si       0.44918    0.20336    0.35593    1.000
    Si2436   Si       0.45550    0.17306    0.29036    1.000
    N2437    N        0.44799    0.06758    0.41655    1.000
    N2438    N        0.44761    0.13050    0.38354    1.000
    Si2439   Si       0.45839    0.04724    0.37737    1.000
    Si2440   Si       0.40388    0.06207    0.41196    1.000
    Si2441   Si       0.43789    0.21209    0.49270    1.000
    N2442    N        0.40535    0.16105    0.43180    1.000
    Si2443   Si       0.44807    0.16347    0.42418    1.000
    N2444    N        0.43399    0.25527    0.48866    1.000
    N2445    N        0.45767    0.19674    0.45741    1.000
    N2446    N        0.44979    0.26124    0.41942    1.000
    N2447    N        0.43587    0.10559    0.58309    1.000
    Si2448   Si       0.42328    0.05559    0.51962    1.000
    Si2449   Si       0.43308    0.11330    0.53749    1.000
    Si2450   Si       0.40988    0.06993    0.59327    1.000
    N2451    N        0.41114    0.09235    0.50142    1.000
    N2452    N        0.43450    0.01973    0.49977    1.000
    N2453    N        0.40091    0.04881    0.55641    1.000
    N2454    N        0.42317    0.04166    0.62279    1.000
    Si2455   Si       0.43196    0.23177    0.56401    1.000
    N2456    N        0.45433    0.20831    0.53348    1.000
    N2457    N        0.45394    0.23372    0.60056    1.000
    N2458    N        0.40260    0.14675    0.54781    1.000
    N2459    N        0.42679    0.15210    0.62308    1.000
    N2460    N        0.42466    0.12149    0.68382    1.000
    Si2461   Si       0.42930    0.11259    0.72444    1.000
    N2462    N        0.43922    0.07255    0.73490    1.000
    Si2463   Si       0.40140    0.01608    0.65100    1.000
    N2464    N        0.42166    0.19450    0.67885    1.000
    Si2465   Si       0.45282    0.21780    0.69463    1.000
    N2466    N        0.45830    0.13817    0.74459    1.000
    N2467    N        0.45548    0.23658    0.73467    1.000
    Si2468   Si       0.41072    0.15566    0.66276    1.000
    N2469    N        0.43439    0.04634    0.80374    1.000
    Si2470   Si       0.41695    0.07905    0.82478    1.000
    N2471    N        0.42993    0.11287    0.80268    1.000
    Si2472   Si       0.42943    0.04082    0.76068    1.000
    N2473    N        0.42591    0.08041    0.86686    1.000
    N2474    N        0.41355    0.18322    0.85628    1.000
    Si2475   Si       0.41482    0.18272    0.81335    1.000
    N2476    N        0.41024    0.22590    0.80244    1.000
    Si2477   Si       0.43714    0.25240    0.82411    1.000
    N2478    N        0.42091    0.01192    0.96067    1.000
    N2479    N        0.42027    0.12827    0.92052    1.000
    Si2480   Si       0.45888    0.02402    0.94487    1.000
    N2481    N        0.45745    0.02613    0.89808    1.000
    Si2482   Si       0.39950    0.10010    0.89553    1.000
    N2483    N        0.40037    0.13020    0.98846    1.000
    N2484    N        0.40444    0.18884    0.95819    1.000
    Si2485   Si       0.42171    0.14996    0.95825    1.000
    N2486    N        0.44229    0.23319    0.90539    1.000
    Si2487   Si       0.44802    0.20192    0.87576    1.000
    Si2488   Si       0.42321    0.22640    0.96957    1.000
    N2489    N        0.43571    0.34239    0.07074    1.000
    Si2490   Si       0.41147    0.34390    0.10737    1.000
    N2491    N        0.41440    0.29977    0.01666    1.000
    Si2492   Si       0.41361    0.27292    0.10193    1.000
    Si2493   Si       0.40860    0.33855    0.03535    1.000
    N2494    N        0.45524    0.28039    0.10988    1.000
    N2495    N        0.42165    0.37431    0.01213    1.000
    N2496    N        0.39771    0.38334    0.11435    1.000
    N2497    N        0.43797    0.48501    0.02225    1.000
    Si2498   Si       0.43022    0.46935    0.06039    1.000
    N2499    N        0.41558    0.42815    0.06104    1.000
    Si2500   Si       0.40605    0.42265    0.10255    1.000
    N2501    N        0.40627    0.49007    0.08979    1.000
    N2502    N        0.42304    0.27438    0.17328    1.000
    Si2503   Si       0.42999    0.35149    0.18002    1.000
    N2504    N        0.44554    0.34745    0.13810    1.000
    N2505    N        0.45219    0.33635    0.21298    1.000
    N2506    N        0.40518    0.40670    0.24029    1.000
    N2507    N        0.42181    0.45752    0.21095    1.000
    N2508    N        0.43924    0.43622    0.12847    1.000
    Si2509   Si       0.43951    0.41851    0.21302    1.000
    N2510    N        0.43812    0.39408    0.17917    1.000
    Si2511   Si       0.43289    0.50008    0.21021    1.000
    Si2512   Si       0.45002    0.35800    0.31600    1.000
    N2513    N        0.41657    0.33725    0.33358    1.000
    N2514    N        0.43493    0.27625    0.26030    1.000
    N2515    N        0.40663    0.34074    0.27059    1.000
    Si2516   Si       0.44095    0.32028    0.25196    1.000
    Si2517   Si       0.40158    0.38340    0.27541    1.000
    N2518    N        0.44615    0.44421    0.35243    1.000
    N2519    N        0.43602    0.39629    0.30046    1.000
    N2520    N        0.44214    0.47087    0.28936    1.000
    Si2521   Si       0.45427    0.43447    0.30981    1.000
    Si2522   Si       0.40783    0.49193    0.27872    1.000
    Si2523   Si       0.41253    0.33899    0.37700    1.000
    Si2524   Si       0.43817    0.27168    0.37824    1.000
    Si2525   Si       0.45532    0.35265    0.43742    1.000
    N2526    N        0.43350    0.31834    0.45834    1.000
    Si2527   Si       0.42286    0.27694    0.45017    1.000
    N2528    N        0.45107    0.34480    0.39508    1.000
    Si2529   Si       0.40749    0.34614    0.47842    1.000
    N2530    N        0.42521    0.38168    0.44961    1.000
    Si2531   Si       0.41560    0.47277    0.44177    1.000
    Si2532   Si       0.40784    0.45112    0.37127    1.000
    N2533    N        0.41040    0.43887    0.41247    1.000
    N2534    N        0.44079    0.47412    0.47917    1.000
    N2535    N        0.42382    0.36702    0.51553    1.000
    Si2536   Si       0.43236    0.28641    0.51756    1.000
    N2537    N        0.43584    0.33665    0.57235    1.000
    N2538    N        0.42143    0.27260    0.55795    1.000
    Si2539   Si       0.40850    0.30244    0.58673    1.000
    Si2540   Si       0.42354    0.37239    0.59024    1.000
    Si2541   Si       0.45707    0.34604    0.53520    1.000
    Si2542   Si       0.42624    0.46820    0.51992    1.000
    N2543    N        0.43919    0.42986    0.53210    1.000
    N2544    N        0.44945    0.49737    0.53993    1.000
    Si2545   Si       0.40468    0.40385    0.53075    1.000
    N2546    N        0.45237    0.48846    0.61386    1.000
    N2547    N        0.45736    0.39850    0.58916    1.000
    N2548    N        0.42734    0.29673    0.62798    1.000
    N2549    N        0.41264    0.36991    0.63189    1.000
    Si2550   Si       0.41237    0.35081    0.71396    1.000
    N2551    N        0.44267    0.33414    0.68744    1.000
    Si2552   Si       0.43846    0.33593    0.64448    1.000
    Si2553   Si       0.45853    0.48312    0.72453    1.000
    N2554    N        0.43761    0.47499    0.68495    1.000
    Si2555   Si       0.42317    0.40523    0.65856    1.000
    N2556    N        0.41676    0.28334    0.84791    1.000
    N2557    N        0.45315    0.34726    0.85034    1.000
    Si2558   Si       0.43964    0.27116    0.75290    1.000
    N2559    N        0.42855    0.36452    0.75196    1.000
    Si2560   Si       0.42319    0.32133    0.86868    1.000
    N2561    N        0.45543    0.27758    0.79547    1.000
    Si2562   Si       0.42468    0.38151    0.85257    1.000
    Si2563   Si       0.40389    0.38355    0.78294    1.000
    N2564    N        0.45471    0.46158    0.82873    1.000
    Si2565   Si       0.45139    0.49515    0.79773    1.000
    N2566    N        0.42865    0.39790    0.81345    1.000
    N2567    N        0.43520    0.47610    0.76087    1.000
    Si2568   Si       0.41645    0.45444    0.85386    1.000
    Si2569   Si       0.44436    0.37506    0.97648    1.000
    Si2570   Si       0.41131    0.30831    0.97463    1.000
    N2571    N        0.43584    0.30526    0.90674    1.000
    N2572    N        0.44316    0.33393    0.96342    1.000
    N2573    N        0.41600    0.26761    0.95593    1.000
    Si2574   Si       0.41578    0.26729    0.91192    1.000
    N2575    N        0.41671    0.41773    0.87554    1.000
    N2576    N        0.43059    0.47250    0.95346    1.000
    Si2577   Si       0.40339    0.43894    0.95523    1.000
    Si2578   Si       0.42191    0.50231    0.98701    1.000
    N2579    N        0.42376    0.40015    0.94496    1.000
    N2580    N        0.42563    0.59096    0.02527    1.000
    Si2581   Si       0.41292    0.53318    0.08164    1.000
    N2582    N        0.45395    0.54191    0.07092    1.000
    N2583    N        0.40857    0.55163    0.12067    1.000
    N2584    N        0.41680    0.70551    0.03849    1.000
    N2585    N        0.44290    0.67047    0.09036    1.000
    Si2586   Si       0.45194    0.70534    0.06475    1.000
    Si2587   Si       0.40441    0.66027    0.11027    1.000
    N2588    N        0.41134    0.51637    0.17603    1.000
    Si2589   Si       0.43928    0.53748    0.14807    1.000
    N2590    N        0.44648    0.60492    0.20303    1.000
    Si2591   Si       0.40440    0.60373    0.20974    1.000
    N2592    N        0.40883    0.51666    0.24274    1.000
    N2593    N        0.42138    0.75456    0.24093    1.000
    Si2594   Si       0.45439    0.68392    0.15919    1.000
    Si2595   Si       0.41495    0.73807    0.20049    1.000
    N2596    N        0.41181    0.68271    0.14737    1.000
    N2597    N        0.45005    0.71147    0.19405    1.000
    N2598    N        0.44239    0.56731    0.31562    1.000
    Si2599   Si       0.43011    0.60868    0.32452    1.000
    Si2600   Si       0.42472    0.53113    0.34095    1.000
    N2601    N        0.41969    0.62563    0.28604    1.000
    Si2602   Si       0.43075    0.72613    0.27297    1.000
    Si2603   Si       0.43999    0.66217    0.27368    1.000
    N2604    N        0.41542    0.74775    0.30544    1.000
    N2605    N        0.40846    0.69039    0.26361    1.000
    N2606    N        0.45277    0.68411    0.31246    1.000
    N2607    N        0.41038    0.55793    0.37142    1.000
    Si2608   Si       0.40658    0.60975    0.45518    1.000
    N2609    N        0.43911    0.61352    0.48328    1.000
    N2610    N        0.42518    0.57106    0.43963    1.000
    Si2611   Si       0.40806    0.54130    0.41033    1.000
    Si2612   Si       0.45705    0.57581    0.46928    1.000
    N2613    N        0.43430    0.50816    0.42246    1.000
    Si2614   Si       0.41996    0.71881    0.49540    1.000
    N2615    N        0.42071    0.69965    0.45446    1.000
    N2616    N        0.45577    0.74679    0.43112    1.000
    Si2617   Si       0.41255    0.74118    0.43835    1.000
    N2618    N        0.41505    0.63832    0.42479    1.000
    Si2619   Si       0.44038    0.67419    0.42338    1.000
    N2620    N        0.43390    0.67792    0.38113    1.000
    Si2621   Si       0.43634    0.53930    0.53953    1.000
    N2622    N        0.44956    0.60107    0.55061    1.000
    N2623    N        0.45336    0.54298    0.57894    1.000
    Si2624   Si       0.40727    0.59792    0.55229    1.000
    N2625    N        0.45524    0.54604    0.50020    1.000
    Si2626   Si       0.42579    0.52280    0.61062    1.000
    N2627    N        0.41026    0.74052    0.59845    1.000
    Si2628   Si       0.42111    0.70306    0.61596    1.000
    N2629    N        0.45171    0.66599    0.54099    1.000
    Si2630   Si       0.41055    0.66858    0.54782    1.000
    N2631    N        0.40494    0.56083    0.70704    1.000
    N2632    N        0.41443    0.62085    0.65084    1.000
    N2633    N        0.42475    0.55390    0.64077    1.000
    Si2634   Si       0.44958    0.56571    0.72035    1.000
    Si2635   Si       0.44647    0.58972    0.64994    1.000
    N2636    N        0.41414    0.69901    0.65786    1.000
    Si2637   Si       0.41633    0.65746    0.67513    1.000
    N2638    N        0.44577    0.65328    0.70527    1.000
    Si2639   Si       0.43474    0.62080    0.78504    1.000
    N2640    N        0.41256    0.60518    0.81924    1.000
    N2641    N        0.42288    0.52153    0.81617    1.000
    N2642    N        0.43076    0.58739    0.75501    1.000
    Si2643   Si       0.41974    0.56312    0.82606    1.000
    Si2644   Si       0.40586    0.75498    0.78318    1.000
    N2645    N        0.43580    0.72103    0.84415    1.000
    Si2646   Si       0.41916    0.68393    0.81342    1.000
    N2647    N        0.44312    0.75217    0.75644    1.000
    N2648    N        0.40834    0.65584    0.77876    1.000
    Si2649   Si       0.40727    0.70665    0.87229    1.000
    N2650    N        0.45812    0.66469    0.81894    1.000
    N2651    N        0.40120    0.66806    0.85312    1.000
    N2652    N        0.42045    0.60976    0.88632    1.000
    N2653    N        0.43589    0.60262    0.95482    1.000
    Si2654   Si       0.44599    0.56235    0.94577    1.000
    N2655    N        0.45408    0.53312    0.97747    1.000
    Si2656   Si       0.43533    0.62121    0.99345    1.000
    Si2657   Si       0.40345    0.60043    0.92397    1.000
    N2658    N        0.40180    0.55753    0.92994    1.000
    N2659    N        0.40708    0.65316    0.99266    1.000
    Si2660   Si       0.46068    0.72592    0.93864    1.000
    Si2661   Si       0.41595    0.69572    0.99650    1.000
    N2662    N        0.42466    0.72261    0.91132    1.000
    N2663    N        0.45575    0.70442    0.97718    1.000
    N2664    N        0.43869    0.79712    0.05885    1.000
    N2665    N        0.42454    0.86548    0.04954    1.000
    N2666    N        0.44795    0.84146    0.10903    1.000
    Si2667   Si       0.45344    0.83812    0.06808    1.000
    N2668    N        0.41108    0.77767    0.00304    1.000
    Si2669   Si       0.39928    0.78373    0.04521    1.000
    Si2670   Si       0.42703    0.90630    0.03486    1.000
    N2671    N        0.44787    0.98265    0.06906    1.000
    Si2672   Si       0.40558    0.97914    0.06440    1.000
    Si2673   Si       0.40531    0.84016    0.12057    1.000
    N2674    N        0.40555    0.84291    0.16456    1.000
    N2675    N        0.42151    0.82535    0.22738    1.000
    Si2676   Si       0.43786    0.84693    0.19406    1.000
    N2677    N        0.42289    0.77492    0.17439    1.000
    N2678    N        0.43315    0.94124    0.16537    1.000
    N2679    N        0.45260    0.94242    0.23400    1.000
    N2680    N        0.45295    0.88295    0.21355    1.000
    Si2681   Si       0.45719    0.92239    0.19548    1.000
    Si2682   Si       0.41789    0.79548    0.25687    1.000
    N2683    N        0.44539    0.77203    0.36208    1.000
    Si2684   Si       0.45064    0.77206    0.31931    1.000
    N2685    N        0.45078    0.79588    0.28274    1.000
    N2686    N        0.45483    0.86329    0.28108    1.000
    Si2687   Si       0.42538    0.88130    0.30799    1.000
    Si2688   Si       0.44848    0.93945    0.31696    1.000
    N2689    N        0.43788    0.97596    0.33730    1.000
    N2690    N        0.42574    0.92016    0.28447    1.000
    N2691    N        0.45010    0.90242    0.33811    1.000
    N2692    N        0.44968    0.99984    0.27012    1.000
    Si2693   Si       0.41113    0.94754    0.25280    1.000
    Si2694   Si       0.44360    0.83589    0.41697    1.000
    N2695    N        0.43415    0.86922    0.39300    1.000
    N2696    N        0.41070    0.80569    0.40726    1.000
    N2697    N        0.44775    0.85514    0.45878    1.000
    Si2698   Si       0.41001    0.85453    0.48060    1.000
    Si2699   Si       0.40456    0.77408    0.37707    1.000
    N2700    N        0.44200    0.93786    0.40046    1.000
    N2701    N        0.39979    0.98698    0.39246    1.000
    N2702    N        0.43964    0.95252    0.48325    1.000
    Si2703   Si       0.43953    0.97893    0.38115    1.000
    Si2704   Si       0.43995    0.93087    0.44461    1.000
    N2705    N        0.41941    0.82234    0.51244    1.000
    N2706    N        0.41102    0.80544    0.58729    1.000
    Si2707   Si       0.41494    0.83499    0.55651    1.000
    Si2708   Si       0.43798    0.77086    0.58439    1.000
    Si2709   Si       0.40995    0.88499    0.60414    1.000
    Si2710   Si       0.41757    0.98085    0.51046    1.000
    N2711    N        0.42846    0.96131    0.54915    1.000
    N2712    N        0.44607    0.87745    0.62524    1.000
    Si2713   Si       0.44434    0.85784    0.66332    1.000
    N2714    N        0.43449    0.81775    0.65124    1.000
    N2715    N        0.42543    0.86672    0.70369    1.000
    Si2716   Si       0.44314    0.78214    0.72372    1.000
    N2717    N        0.40063    0.79624    0.71816    1.000
    Si2718   Si       0.42531    0.90939    0.71130    1.000
    N2719    N        0.41698    0.97561    0.65351    1.000
    N2720    N        0.44055    0.00344    0.73871    1.000
    N2721    N        0.45901    0.93715    0.70248    1.000
    Si2722   Si       0.45740    0.96516    0.66824    1.000
    Si2723   Si       0.43428    0.82453    0.78617    1.000
    N2724    N        0.41564    0.78972    0.80515    1.000
    N2725    N        0.40371    0.85051    0.76907    1.000
    N2726    N        0.45404    0.91777    0.81096    1.000
    Si2727   Si       0.42364    0.89827    0.77979    1.000
    N2728    N        0.42987    0.89092    0.86925    1.000
    N2729    N        0.45694    0.89358    0.74761    1.000
    Si2730   Si       0.43084    0.85977    0.90027    1.000
    Si2731   Si       0.44906    0.78548    0.98129    1.000
    Si2732   Si       0.45237    0.78645    0.89702    1.000
    N2733    N        0.41343    0.78295    0.88000    1.000
    N2734    N        0.45223    0.76979    0.94011    1.000
    Si2735   Si       0.42859    0.91117    0.95684    1.000
    N2736    N        0.40994    0.89805    0.99316    1.000
    N2737    N        0.44988    0.88124    0.93231    1.000
    N2738    N        0.46097    0.93689    0.96949    1.000
    Si2739   Si       0.42039    0.93121    0.88882    1.000
    N2740    N        0.45609    0.95362    0.89803    1.000
    N2741    N        0.49165    0.04257    0.08049    1.000
    Si2742   Si       0.50950    0.06206    0.11472    1.000
    Si2743   Si       0.48188    0.06317    0.00163    1.000
    N2744    N        0.46075    0.09967    0.01339    1.000
    Si2745   Si       0.50067    0.20126    0.05438    1.000
    N2746    N        0.47016    0.18428    0.02447    1.000
    Si2747   Si       0.47294    0.24071    0.11059    1.000
    N2748    N        0.50950    0.17902    0.09275    1.000
    N2749    N        0.46672    0.22608    0.07206    1.000
    N2750    N        0.51628    0.24217    0.11844    1.000
    Si2751   Si       0.51819    0.14175    0.11482    1.000
    N2752    N        0.50136    0.12100    0.23575    1.000
    N2753    N        0.47824    0.06676    0.14581    1.000
    N2754    N        0.47031    0.02772    0.20830    1.000
    Si2755   Si       0.51102    0.01530    0.22312    1.000
    Si2756   Si       0.47351    0.17800    0.15908    1.000
    N2757    N        0.48557    0.13951    0.14240    1.000
    N2758    N        0.51843    0.19138    0.16150    1.000
    Si2759   Si       0.48821    0.20075    0.22695    1.000
    N2760    N        0.47685    0.24057    0.21356    1.000
    N2761    N        0.46637    0.17335    0.20126    1.000
    Si2762   Si       0.49829    0.06494    0.33054    1.000
    Si2763   Si       0.49590    0.08328    0.25925    1.000
    N2764    N        0.50484    0.09598    0.30151    1.000
    N2765    N        0.46188    0.04070    0.33296    1.000
    Si2766   Si       0.50398    0.20568    0.30416    1.000
    N2767    N        0.49126    0.16319    0.31325    1.000
    N2768    N        0.48181    0.22430    0.33693    1.000
    N2769    N        0.47558    0.20621    0.27037    1.000
    N2770    N        0.49347    0.07782    0.37273    1.000
    N2771    N        0.49579    0.06277    0.47959    1.000
    Si2772   Si       0.47232    0.10220    0.40780    1.000
    Si2773   Si       0.47637    0.02450    0.49075    1.000
    N2774    N        0.47196    0.13257    0.44089    1.000
    Si2775   Si       0.47217    0.22448    0.42800    1.000
    N2776    N        0.45842    0.19772    0.39698    1.000
    Si2777   Si       0.51358    0.13346    0.45269    1.000
    N2778    N        0.51529    0.23318    0.43902    1.000
    N2779    N        0.49324    0.04227    0.59821    1.000
    Si2780   Si       0.49191    0.05288    0.55770    1.000
    Si2781   Si       0.49377    0.09595    0.51186    1.000
    N2782    N        0.49377    0.01774    0.53164    1.000
    N2783    N        0.46078    0.07416    0.53455    1.000
    N2784    N        0.46960    0.13324    0.52152    1.000
    Si2785   Si       0.47982    0.17179    0.53912    1.000
    Si2786   Si       0.48842    0.20323    0.60189    1.000
    N2787    N        0.47807    0.16800    0.58166    1.000
    N2788    N        0.52063    0.22662    0.58328    1.000
    Si2789   Si       0.46181    0.13469    0.60430    1.000
    N2790    N        0.49373    0.12209    0.62919    1.000
    Si2791   Si       0.46513    0.03444    0.62970    1.000
    Si2792   Si       0.50667    0.02860    0.67558    1.000
    N2793    N        0.47448    0.05775    0.66449    1.000
    Si2794   Si       0.49266    0.09658    0.66396    1.000
    N2795    N        0.50132    0.12864    0.68800    1.000
    N2796    N        0.51038    0.01171    0.71383    1.000
    N2797    N        0.46339    0.24734    0.66581    1.000
    N2798    N        0.48662    0.19268    0.70946    1.000
    Si2799   Si       0.49477    0.15310    0.72260    1.000
    Si2800   Si       0.49751    0.22290    0.74133    1.000
    N2801    N        0.50011    0.18930    0.64196    1.000
    N2802    N        0.48879    0.05727    0.84476    1.000
    N2803    N        0.49470    0.02908    0.77831    1.000
    N2804    N        0.50160    0.11377    0.79860    1.000
    Si2805   Si       0.47167    0.02864    0.81580    1.000
    Si2806   Si       0.46416    0.13400    0.78838    1.000
    Si2807   Si       0.48801    0.19975    0.81670    1.000
    N2808    N        0.50427    0.22264    0.78274    1.000
    N2809    N        0.46666    0.22564    0.84322    1.000
    N2810    N        0.51826    0.18080    0.84179    1.000
    N2811    N        0.45759    0.17398    0.80230    1.000
    N2812    N        0.47678    0.05881    0.95923    1.000
    N2813    N        0.48253    0.09425    0.90632    1.000
    Si2814   Si       0.51061    0.07640    0.93458    1.000
    Si2815   Si       0.46370    0.06501    0.88073    1.000
    Si2816   Si       0.46629    0.13382    0.91825    1.000
    N2817    N        0.47071    0.16713    0.89019    1.000
    Si2818   Si       0.51442    0.17590    0.88796    1.000
    N2819    N        0.51400    0.21584    0.90644    1.000
    N2820    N        0.46591    0.15081    0.95683    1.000
    Si2821   Si       0.48302    0.18209    0.98023    1.000
    N2822    N        0.46602    0.21874    0.96297    1.000
    Si2823   Si       0.48231    0.23885    0.92719    1.000
    N2824    N        0.49835    0.33056    0.10212    1.000
    Si2825   Si       0.47830    0.35524    0.07195    1.000
    N2826    N        0.50464    0.36178    0.03763    1.000
    N2827    N        0.52056    0.29789    0.00491    1.000
    Si2828   Si       0.48028    0.47154    0.02103    1.000
    N2829    N        0.48929    0.43175    0.03446    1.000
    Si2830   Si       0.50213    0.43333    0.07963    1.000
    N2831    N        0.47032    0.47401    0.07723    1.000
    Si2832   Si       0.50630    0.39918    0.01169    1.000
    N2833    N        0.47767    0.39527    0.09441    1.000
    N2834    N        0.50185    0.50893    0.03120    1.000
    Si2835   Si       0.49483    0.32045    0.20484    1.000
    N2836    N        0.48443    0.29807    0.16902    1.000
    Si2837   Si       0.47252    0.31385    0.13051    1.000
    N2838    N        0.49217    0.29520    0.23792    1.000
    Si2839   Si       0.46444    0.26051    0.17729    1.000
    Si2840   Si       0.46830    0.46720    0.12040    1.000
    N2841    N        0.46890    0.50324    0.14302    1.000
    Si2842   Si       0.51368    0.44355    0.22829    1.000
    N2843    N        0.47890    0.41893    0.23220    1.000
    Si2844   Si       0.49757    0.49923    0.17693    1.000
    N2845    N        0.50740    0.44769    0.12261    1.000
    N2846    N        0.51401    0.45981    0.18737    1.000
    N2847    N        0.50057    0.39259    0.15858    1.000
    Si2848   Si       0.46110    0.39507    0.13800    1.000
    Si2849   Si       0.50733    0.31088    0.27991    1.000
    N2850    N        0.48355    0.36204    0.34135    1.000
    N2851    N        0.46888    0.33437    0.28256    1.000
    N2852    N        0.46999    0.29170    0.35401    1.000
    N2853    N        0.49791    0.26717    0.28985    1.000
    Si2854   Si       0.49721    0.26614    0.33294    1.000
    Si2855   Si       0.47419    0.25750    0.25298    1.000
    Si2856   Si       0.48376    0.32986    0.37061    1.000
    Si2857   Si       0.47792    0.49122    0.30504    1.000
    Si2858   Si       0.48556    0.46804    0.35782    1.000
    N2859    N        0.49590    0.45228    0.31590    1.000
    N2860    N        0.49797    0.35837    0.44529    1.000
    N2861    N        0.51780    0.29570    0.46478    1.000
    Si2862   Si       0.46989    0.50605    0.49381    1.000
    Si2863   Si       0.47886    0.50615    0.41879    1.000
    N2864    N        0.49141    0.46872    0.40141    1.000
    Si2865   Si       0.51250    0.29875    0.50846    1.000
    N2866    N        0.47018    0.30786    0.51938    1.000
    N2867    N        0.48700    0.37805    0.53097    1.000
    N2868    N        0.50109    0.28608    0.61930    1.000
    Si2869   Si       0.47550    0.41404    0.55128    1.000
    N2870    N        0.50981    0.44011    0.55622    1.000
    Si2871   Si       0.47278    0.50203    0.57636    1.000
    N2872    N        0.50824    0.49973    0.51523    1.000
    N2873    N        0.51627    0.50402    0.57880    1.000
    N2874    N        0.47012    0.30112    0.74183    1.000
    N2875    N        0.47971    0.35051    0.63511    1.000
    Si2876   Si       0.48198    0.32567    0.70857    1.000
    N2877    N        0.49421    0.36398    0.72190    1.000
    Si2878   Si       0.51278    0.32259    0.64215    1.000
    N2879    N        0.51557    0.31117    0.68449    1.000
    Si2880   Si       0.46224    0.26683    0.62668    1.000
    N2881    N        0.49522    0.45729    0.72317    1.000
    N2882    N        0.46416    0.42170    0.65355    1.000
    Si2883   Si       0.46466    0.46683    0.65090    1.000
    N2884    N        0.50671    0.48170    0.66078    1.000
    Si2885   Si       0.48245    0.39507    0.62387    1.000
    Si2886   Si       0.48850    0.36111    0.83030    1.000
    N2887    N        0.48857    0.34700    0.79028    1.000
    Si2888   Si       0.48735    0.30407    0.78259    1.000
    Si2889   Si       0.47129    0.37196    0.75781    1.000
    N2890    N        0.49563    0.40335    0.83117    1.000
    N2891    N        0.47495    0.41343    0.76991    1.000
    Si2892   Si       0.51043    0.43517    0.75758    1.000
    Si2893   Si       0.46458    0.42418    0.80922    1.000
    N2894    N        0.49299    0.28354    0.93815    1.000
    N2895    N        0.48959    0.35226    0.91437    1.000
    Si2896   Si       0.46860    0.31914    0.93189    1.000
    N2897    N        0.48641    0.38804    0.97580    1.000
    N2898    N        0.48273    0.43295    0.92027    1.000
    Si2899   Si       0.47172    0.46933    0.94185    1.000
    N2900    N        0.49416    0.46869    0.97992    1.000
    N2901    N        0.49852    0.50232    0.92764    1.000
    Si2902   Si       0.49597    0.39152    0.93143    1.000
    N2903    N        0.48984    0.57423    0.02202    1.000
    N2904    N        0.47979    0.60831    0.07961    1.000
    Si2905   Si       0.50814    0.61072    0.01001    1.000
    Si2906   Si       0.48721    0.51561    0.07325    1.000
    Si2907   Si       0.45953    0.58206    0.05241    1.000
    Si2908   Si       0.48914    0.53689    0.99946    1.000
    Si2909   Si       0.47483    0.64494    0.10399    1.000
    N2910    N        0.48852    0.69362    0.04268    1.000
    N2911    N        0.46854    0.74159    0.08262    1.000
    Si2912   Si       0.49511    0.73980    0.11744    1.000
    N2913    N        0.51392    0.65929    0.09290    1.000
    Si2914   Si       0.48340    0.68034    0.00068    1.000
    N2915    N        0.47399    0.63788    0.00427    1.000
    N2916    N        0.47485    0.50856    0.21185    1.000
    Si2917   Si       0.47805    0.61375    0.22988    1.000
    N2918    N        0.47101    0.56876    0.14830    1.000
    Si2919   Si       0.47381    0.60640    0.16706    1.000
    N2920    N        0.50552    0.61320    0.19680    1.000
    Si2921   Si       0.51009    0.55579    0.13204    1.000
    Si2922   Si       0.50441    0.51604    0.24190    1.000
    N2923    N        0.49279    0.70675    0.14792    1.000
    N2924    N        0.46398    0.64279    0.14552    1.000
    N2925    N        0.51641    0.70184    0.21450    1.000
    Si2926   Si       0.48337    0.72746    0.21828    1.000
    N2927    N        0.48805    0.52476    0.28251    1.000
    Si2928   Si       0.48248    0.56587    0.29565    1.000
    N2929    N        0.49200    0.58632    0.26007    1.000
    Si2930   Si       0.49711    0.53504    0.35597    1.000
    Si2931   Si       0.50596    0.60859    0.34854    1.000
    N2932    N        0.50551    0.56944    0.33245    1.000
    N2933    N        0.46724    0.62591    0.34172    1.000
    N2934    N        0.46194    0.50746    0.34397    1.000
    Si2935   Si       0.46234    0.66823    0.35104    1.000
    N2936    N        0.50237    0.68697    0.35214    1.000
    Si2937   Si       0.48682    0.71036    0.30369    1.000
    N2938    N        0.47253    0.71759    0.26018    1.000
    N2939    N        0.48699    0.75121    0.31548    1.000
    Si2940   Si       0.50370    0.68167    0.25108    1.000
    N2941    N        0.47330    0.64984    0.24818    1.000
    Si2942   Si       0.51434    0.57194    0.41841    1.000
    N2943    N        0.49495    0.58420    0.45584    1.000
    N2944    N        0.49449    0.54251    0.39838    1.000
    N2945    N        0.49676    0.51168    0.45675    1.000
    N2946    N        0.51657    0.60827    0.39177    1.000
    N2947    N        0.48384    0.68551    0.42515    1.000
    N2948    N        0.51747    0.70840    0.47039    1.000
    N2949    N        0.51032    0.74891    0.39124    1.000
    Si2950   Si       0.47727    0.71935    0.45818    1.000
    Si2951   Si       0.50794    0.70360    0.39114    1.000
    Si2952   Si       0.47358    0.58170    0.57848    1.000
    N2953    N        0.51278    0.57274    0.56230    1.000
    N2954    N        0.47438    0.59833    0.61776    1.000
    N2955    N        0.50340    0.62847    0.51230    1.000
    Si2956   Si       0.50603    0.62818    0.61923    1.000
    Si2957   Si       0.46035    0.62833    0.51958    1.000
    Si2958   Si       0.50369    0.74351    0.60219    1.000
    N2959    N        0.49244    0.72023    0.56666    1.000
    Si2960   Si       0.47423    0.68194    0.57417    1.000
    N2961    N        0.50514    0.65260    0.58024    1.000
    Si2962   Si       0.48317    0.74328    0.53251    1.000
    N2963    N        0.46375    0.69155    0.61721    1.000
    N2964    N        0.46329    0.72743    0.49821    1.000
    N2965    N        0.46671    0.58925    0.68868    1.000
    Si2966   Si       0.49596    0.62272    0.68889    1.000
    N2967    N        0.46942    0.52645    0.72684    1.000
    N2968    N        0.51697    0.56817    0.74345    1.000
    Si2969   Si       0.49149    0.69301    0.64841    1.000
    N2970    N        0.50978    0.74762    0.74172    1.000
    Si2971   Si       0.47777    0.67621    0.71988    1.000
    N2972    N        0.51294    0.64786    0.71900    1.000
    N2973    N        0.49629    0.65028    0.65370    1.000
    Si2974   Si       0.50216    0.74597    0.69915    1.000
    N2975    N        0.48529    0.70669    0.68937    1.000
    Si2976   Si       0.49585    0.54642    0.82729    1.000
    N2977    N        0.48073    0.62058    0.77860    1.000
    N2978    N        0.48476    0.52175    0.79382    1.000
    Si2979   Si       0.50248    0.52852    0.75462    1.000
    N2980    N        0.51488    0.52699    0.86296    1.000
    Si2981   Si       0.51573    0.59626    0.77509    1.000
    N2982    N        0.48921    0.62289    0.87008    1.000
    N2983    N        0.46084    0.56728    0.84223    1.000
    Si2984   Si       0.47795    0.73189    0.84791    1.000
    N2985    N        0.49591    0.74002    0.80789    1.000
    Si2986   Si       0.48857    0.66075    0.78851    1.000
    N2987    N        0.47715    0.69072    0.75978    1.000
    Si2988   Si       0.48948    0.66101    0.84921    1.000
    Si2989   Si       0.47953    0.73369    0.76840    1.000
    N2990    N        0.49412    0.69799    0.86771    1.000
    Si2991   Si       0.46051    0.59109    0.87950    1.000
    Si2992   Si       0.50684    0.53742    0.90453    1.000
    N2993    N        0.47165    0.56321    0.91170    1.000
    N2994    N        0.50558    0.72601    0.92949    1.000
    N2995    N        0.49165    0.83494    0.04825    1.000
    N2996    N        0.48037    0.77366    0.01038    1.000
    Si2997   Si       0.49237    0.83972    0.00521    1.000
    Si2998   Si       0.47280    0.77381    0.05338    1.000
    N2999    N        0.48840    0.93960    0.10520    1.000
    Si3000   Si       0.48202    0.95740    0.06546    1.000
    N3001    N        0.46826    0.92417    0.03881    1.000
    N3002    N        0.48859    0.76946    0.20981    1.000
    Si3003   Si       0.48043    0.82238    0.13119    1.000
    N3004    N        0.48345    0.77657    0.13712    1.000
    N3005    N        0.47088    0.82671    0.17398    1.000
    Si3006   Si       0.46561    0.78224    0.17560    1.000
    N3007    N        0.50702    0.82864    0.24192    1.000
    N3008    N        0.48131    0.99545    0.14898    1.000
    Si3009   Si       0.47086    0.95247    0.14413    1.000
    N3010    N        0.49412    0.92888    0.17296    1.000
    Si3011   Si       0.48127    0.82801    0.27727    1.000
    N3012    N        0.51203    0.81704    0.30796    1.000
    N3013    N        0.48627    0.94475    0.29995    1.000
    Si3014   Si       0.47555    0.96614    0.26203    1.000
    N3015    N        0.50587    0.89809    0.25761    1.000
    Si3016   Si       0.46099    0.89823    0.25595    1.000
    N3017    N        0.51284    0.98178    0.25014    1.000
    Si3018   Si       0.48748    0.85610    0.47570    1.000
    Si3019   Si       0.47186    0.76977    0.39661    1.000
    N3020    N        0.48057    0.81295    0.41019    1.000
    N3021    N        0.49463    0.82053    0.50213    1.000
    N3022    N        0.50327    0.90067    0.38807    1.000
    Si3023   Si       0.48251    0.95850    0.48068    1.000
    Si3024   Si       0.46058    0.90318    0.38174    1.000
    Si3025   Si       0.50268    0.99962    0.42112    1.000
    N3026    N        0.48432    0.92977    0.45005    1.000
    N3027    N        0.49023    0.99537    0.46179    1.000
    N3028    N        0.47050    0.00811    0.39297    1.000
    Si3029   Si       0.49063    0.87497    0.54749    1.000
    N3030    N        0.46931    0.76636    0.61522    1.000
    N3031    N        0.46048    0.84378    0.55627    1.000
    Si3032   Si       0.46092    0.81236    0.52586    1.000
    N3033    N        0.45720    0.77503    0.54634    1.000
    N3034    N        0.49527    0.88850    0.50561    1.000
    N3035    N        0.49722    0.95163    0.52201    1.000
    N3036    N        0.47642    0.90885    0.57407    1.000
    N3037    N        0.49571    0.97337    0.58296    1.000
    Si3038   Si       0.46965    0.94824    0.55690    1.000
    Si3039   Si       0.47970    0.90237    0.61727    1.000
    Si3040   Si       0.47120    0.85701    0.72685    1.000
    N3041    N        0.48386    0.85532    0.68502    1.000
    N3042    N        0.47118    0.77567    0.69014    1.000
    N3043    N        0.50863    0.81106    0.63919    1.000
    Si3044   Si       0.47050    0.79348    0.64924    1.000
    N3045    N        0.51150    0.85453    0.74586    1.000
    Si3046   Si       0.51673    0.84854    0.65734    1.000
    Si3047   Si       0.48289    0.92886    0.73950    1.000
    Si3048   Si       0.50334    0.97217    0.62360    1.000
    N3049    N        0.47969    0.99884    0.65233    1.000
    N3050    N        0.47707    0.94022    0.63880    1.000
    Si3051   Si       0.49835    0.84113    0.78572    1.000
    N3052    N        0.49644    0.88337    0.85931    1.000
    N3053    N        0.46144    0.85064    0.80793    1.000
    N3054    N        0.45710    0.82011    0.74815    1.000
    N3055    N        0.48486    0.96071    0.76912    1.000
    Si3056   Si       0.47908    0.95311    0.81199    1.000
    N3057    N        0.47092    0.99019    0.83408    1.000
    N3058    N        0.51667    0.93819    0.82768    1.000
    Si3059   Si       0.45887    0.88497    0.83778    1.000
    Si3060   Si       0.48355    0.00041    0.74704    1.000
    N3061    N        0.46170    0.82900    0.89779    1.000
    N3062    N        0.48208    0.76688    0.87320    1.000
    Si3063   Si       0.47915    0.85842    0.95202    1.000
    Si3064   Si       0.49870    0.84817    0.88503    1.000
    N3065    N        0.46135    0.82777    0.97576    1.000
    N3066    N        0.49452    0.88066    0.98733    1.000
    N3067    N        0.51652    0.85875    0.92527    1.000
    Si3068   Si       0.47252    0.99133    0.87816    1.000
    Si3069   Si       0.47955    0.95220    0.93474    1.000
    N3070    N        0.48804    0.99189    0.94442    1.000
    N3071    N        0.51609    0.98296    0.88672    1.000
    N3072    N        0.51897    0.93048    0.93689    1.000
    Si3073   Si       0.48876    0.92126    0.00057    1.000
    N3074    N        0.55809    0.04763    0.07314    1.000
    Si3075   Si       0.56143    0.09264    0.07185    1.000
    N3076    N        0.56778    0.10228    0.02943    1.000
    N3077    N        0.52411    0.10206    0.09987    1.000
    Si3078   Si       0.52402    0.02872    0.05344    1.000
    N3079    N        0.52106    0.05069    0.01578    1.000
    Si3080   Si       0.57600    0.03162    0.10994    1.000
    Si3081   Si       0.55325    0.07534    0.99958    1.000
    N3082    N        0.53994    0.21076    0.03698    1.000
    Si3083   Si       0.53556    0.19980    0.12172    1.000
    N3084    N        0.53637    0.03261    0.13186    1.000
    N3085    N        0.56785    0.12525    0.22151    1.000
    N3086    N        0.55026    0.24773    0.18454    1.000
    Si3087   Si       0.55088    0.25877    0.14188    1.000
    N3088    N        0.57522    0.22344    0.12740    1.000
    N3089    N        0.55803    0.15947    0.12155    1.000
    N3090    N        0.53047    0.18697    0.22851    1.000
    Si3091   Si       0.54707    0.20395    0.19212    1.000
    Si3092   Si       0.53628    0.14700    0.24405    1.000
    Si3093   Si       0.54968    0.05012    0.28329    1.000
    N3094    N        0.53814    0.05024    0.32593    1.000
    N3095    N        0.53693    0.12793    0.35810    1.000
    N3096    N        0.56890    0.01161    0.28890    1.000
    Si3097   Si       0.52092    0.13316    0.31677    1.000
    N3098    N        0.56895    0.00909    0.37009    1.000
    N3099    N        0.52113    0.04970    0.25163    1.000
    Si3100   Si       0.55482    0.22621    0.35003    1.000
    N3101    N        0.55129    0.14581    0.28590    1.000
    N3102    N        0.54582    0.20686    0.31252    1.000
    Si3103   Si       0.56363    0.15853    0.37561    1.000
    N3104    N        0.52352    0.09767    0.42546    1.000
    Si3105   Si       0.52691    0.06261    0.45015    1.000
    Si3106   Si       0.53430    0.09156    0.38272    1.000
    N3107    N        0.53150    0.03235    0.42072    1.000
    N3108    N        0.56139    0.05249    0.47684    1.000
    Si3109   Si       0.56958    0.03701    0.40253    1.000
    N3110    N        0.57375    0.07642    0.38806    1.000
    N3111    N        0.52515    0.12080    0.49276    1.000
    N3112    N        0.57977    0.15630    0.48994    1.000
    N3113    N        0.53509    0.16794    0.44305    1.000
    Si3114   Si       0.54393    0.20493    0.42196    1.000
    N3115    N        0.54256    0.19649    0.38041    1.000
    Si3116   Si       0.53411    0.25494    0.47098    1.000
    N3117    N        0.55297    0.07717    0.60136    1.000
    Si3118   Si       0.53666    0.03671    0.60867    1.000
    Si3119   Si       0.54952    0.04511    0.51729    1.000
    Si3120   Si       0.56191    0.08928    0.56203    1.000
    N3121    N        0.52497    0.07474    0.53874    1.000
    N3122    N        0.56006    0.13248    0.55788    1.000
    Si3123   Si       0.53454    0.22210    0.54074    1.000
    Si3124   Si       0.54649    0.15020    0.51768    1.000
    N3125    N        0.52102    0.18271    0.52722    1.000
    Si3126   Si       0.53266    0.25695    0.61085    1.000
    Si3127   Si       0.57805    0.14397    0.59807    1.000
    N3128    N        0.52483    0.25553    0.51439    1.000
    Si3129   Si       0.56484    0.09110    0.64019    1.000
    N3130    N        0.53420    0.07872    0.66976    1.000
    Si3131   Si       0.55728    0.08165    0.70624    1.000
    N3132    N        0.54011    0.01930    0.64729    1.000
    N3133    N        0.53730    0.07987    0.74573    1.000
    N3134    N        0.57721    0.04357    0.70194    1.000
    Si3135   Si       0.52145    0.14968    0.65205    1.000
    N3136    N        0.56118    0.13638    0.63699    1.000
    N3137    N        0.54632    0.23865    0.65059    1.000
    Si3138   Si       0.52248    0.21208    0.67740    1.000
    N3139    N        0.53069    0.23557    0.71551    1.000
    N3140    N        0.54610    0.17654    0.68124    1.000
    Si3141   Si       0.56719    0.25225    0.73012    1.000
    N3142    N        0.52653    0.15122    0.74976    1.000
    N3143    N        0.55025    0.06880    0.80770    1.000
    Si3144   Si       0.53414    0.04467    0.77432    1.000
    Si3145   Si       0.53907    0.11451    0.77205    1.000
    N3146    N        0.54000    0.11339    0.85650    1.000
    N3147    N        0.56335    0.01532    0.76172    1.000
    Si3148   Si       0.51779    0.08913    0.82928    1.000
    Si3149   Si       0.56006    0.19489    0.83737    1.000
    N3150    N        0.55446    0.23865    0.83383    1.000
    Si3151   Si       0.53668    0.24913    0.79657    1.000
    N3152    N        0.56982    0.23825    0.77036    1.000
    N3153    N        0.57414    0.17148    0.87234    1.000
    N3154    N        0.53480    0.04639    0.91588    1.000
    N3155    N        0.53244    0.09588    0.96544    1.000
    Si3156   Si       0.56307    0.13119    0.88639    1.000
    N3157    N        0.53557    0.24095    0.96333    1.000
    Si3158   Si       0.54685    0.21019    0.98925    1.000
    Si3159   Si       0.54441    0.13751    0.95792    1.000
    Si3160   Si       0.54979    0.23373    0.92277    1.000
    N3161    N        0.53487    0.14859    0.91638    1.000
    N3162    N        0.52557    0.17310    0.97830    1.000
    N3163    N        0.55332    0.31721    0.06513    1.000
    Si3164   Si       0.53974    0.32564    0.10446    1.000
    Si3165   Si       0.53490    0.33061    0.02873    1.000
    N3166    N        0.56921    0.34606    0.00639    1.000
    N3167    N        0.54633    0.43990    0.07075    1.000
    Si3168   Si       0.56124    0.44382    0.03007    1.000
    N3169    N        0.54933    0.40951    0.00895    1.000
    N3170    N        0.55856    0.47932    0.00128    1.000
    N3171    N        0.55324    0.36254    0.12266    1.000
    Si3172   Si       0.56094    0.33324    0.22747    1.000
    N3173    N        0.56194    0.29820    0.13028    1.000
    Si3174   Si       0.53804    0.37073    0.16332    1.000
    N3175    N        0.53333    0.33924    0.19298    1.000
    N3176    N        0.55676    0.40804    0.17784    1.000
    N3177    N        0.54893    0.42090    0.24289    1.000
    Si3178   Si       0.52418    0.43008    0.15906    1.000
    Si3179   Si       0.54690    0.30557    0.35574    1.000
    N3180    N        0.55647    0.36546    0.35202    1.000
    N3181    N        0.53538    0.34154    0.26087    1.000
    N3182    N        0.53530    0.26393    0.35412    1.000
    Si3183   Si       0.52280    0.36290    0.32385    1.000
    N3184    N        0.52439    0.31775    0.32029    1.000
    Si3185   Si       0.55454    0.38222    0.26636    1.000
    Si3186   Si       0.53671    0.43389    0.31379    1.000
    N3187    N        0.55419    0.43531    0.35549    1.000
    Si3188   Si       0.55998    0.47846    0.36203    1.000
    Si3189   Si       0.56678    0.46444    0.25413    1.000
    N3190    N        0.56873    0.45615    0.29589    1.000
    N3191    N        0.52761    0.39621    0.29797    1.000
    N3192    N        0.52132    0.49992    0.35239    1.000
    N3193    N        0.52522    0.47927    0.25087    1.000
    N3194    N        0.52048    0.31808    0.38975    1.000
    Si3195   Si       0.52380    0.32271    0.43179    1.000
    N3196    N        0.56211    0.34628    0.44218    1.000
    Si3197   Si       0.53539    0.38226    0.44667    1.000
    N3198    N        0.57695    0.25338    0.47394    1.000
    N3199    N        0.56213    0.47980    0.40556    1.000
    N3200    N        0.53425    0.45503    0.46433    1.000
    Si3201   Si       0.53201    0.49572    0.47779    1.000
    Si3202   Si       0.52991    0.45232    0.41918    1.000
    N3203    N        0.53755    0.40832    0.41232    1.000
    Si3204   Si       0.56413    0.39957    0.37785    1.000
    Si3205   Si       0.56729    0.43512    0.48661    1.000
    N3206    N        0.54454    0.39663    0.48571    1.000
    N3207    N        0.53653    0.33086    0.52532    1.000
    Si3208   Si       0.52855    0.37364    0.51917    1.000
    Si3209   Si       0.57430    0.34608    0.54687    1.000
    N3210    N        0.57444    0.26614    0.60299    1.000
    N3211    N        0.55108    0.38341    0.55520    1.000
    Si3212   Si       0.52891    0.47762    0.54529    1.000
    Si3213   Si       0.54107    0.41826    0.57882    1.000
    N3214    N        0.56264    0.46922    0.52100    1.000
    N3215    N        0.52286    0.40551    0.61551    1.000
    N3216    N        0.57805    0.44172    0.58055    1.000
    N3217    N        0.56696    0.35564    0.71122    1.000
    N3218    N        0.56455    0.29435    0.72966    1.000
    Si3219   Si       0.55828    0.31592    0.69144    1.000
    N3220    N        0.54994    0.34529    0.64431    1.000
    Si3221   Si       0.53302    0.38289    0.71589    1.000
    N3222    N        0.53358    0.41064    0.68175    1.000
    N3223    N        0.57005    0.50400    0.63407    1.000
    Si3224   Si       0.56700    0.50526    0.72074    1.000
    N3225    N        0.56391    0.47095    0.69451    1.000
    Si3226   Si       0.54755    0.39017    0.64544    1.000
    Si3227   Si       0.52522    0.45327    0.69001    1.000
    Si3228   Si       0.54801    0.32318    0.81718    1.000
    N3229    N        0.56381    0.34701    0.78409    1.000
    N3230    N        0.52486    0.28957    0.79989    1.000
    N3231    N        0.52373    0.34189    0.84735    1.000
    Si3232   Si       0.57371    0.38820    0.77892    1.000
    N3233    N        0.56730    0.40639    0.81877    1.000
    Si3234   Si       0.56361    0.48084    0.78588    1.000
    Si3235   Si       0.53098    0.42822    0.82840    1.000
    Si3236   Si       0.54600    0.49468    0.85459    1.000
    N3237    N        0.52950    0.45563    0.86347    1.000
    N3238    N        0.52727    0.45473    0.79288    1.000
    N3239    N        0.54121    0.40414    0.75234    1.000
    N3240    N        0.54022    0.50614    0.75469    1.000
    N3241    N        0.56397    0.50837    0.81760    1.000
    N3242    N        0.56362    0.26710    0.89686    1.000
    N3243    N        0.56192    0.33875    0.90700    1.000
    Si3244   Si       0.52643    0.28250    0.96678    1.000
    N3245    N        0.57004    0.29673    0.95995    1.000
    Si3246   Si       0.52527    0.35209    0.88851    1.000
    Si3247   Si       0.57310    0.38021    0.91495    1.000
    N3248    N        0.54788    0.46026    0.93491    1.000
    N3249    N        0.53189    0.39507    0.90455    1.000
    Si3250   Si       0.52931    0.48889    0.96403    1.000
    Si3251   Si       0.52351    0.43788    0.90391    1.000
    Si3252   Si       0.56265    0.52493    0.09836    1.000
    N3253    N        0.53659    0.62115    0.03820    1.000
    N3254    N        0.56980    0.53156    0.05332    1.000
    Si3255   Si       0.54522    0.51709    0.02115    1.000
    Si3256   Si       0.52673    0.61789    0.08538    1.000
    N3257    N        0.57627    0.61796    0.08993    1.000
    N3258    N        0.52972    0.59394    0.12335    1.000
    N3259    N        0.51964    0.53131    0.09753    1.000
    N3260    N        0.53224    0.72982    0.09722    1.000
    N3261    N        0.55711    0.70981    0.04499    1.000
    Si3262   Si       0.56355    0.75215    0.05948    1.000
    Si3263   Si       0.55486    0.70861    0.99964    1.000
    Si3264   Si       0.52420    0.69401    0.06734    1.000
    Si3265   Si       0.57234    0.72335    0.11925    1.000
    N3266    N        0.55570    0.61876    0.23839    1.000
    Si3267   Si       0.55744    0.54349    0.18855    1.000
    N3268    N        0.56613    0.58576    0.17714    1.000
    Si3269   Si       0.54762    0.62015    0.19527    1.000
    N3270    N        0.53399    0.54539    0.22770    1.000
    Si3271   Si       0.57301    0.59642    0.13399    1.000
    N3272    N        0.52478    0.52863    0.16406    1.000
    Si3273   Si       0.52883    0.69607    0.17316    1.000
    N3274    N        0.55276    0.65720    0.17196    1.000
    N3275    N        0.56011    0.72556    0.16066    1.000
    Si3276   Si       0.57596    0.75703    0.18523    1.000
    N3277    N        0.56055    0.57208    0.28615    1.000
    Si3278   Si       0.53535    0.58282    0.25257    1.000
    Si3279   Si       0.57073    0.60053    0.31857    1.000
    N3280    N        0.53887    0.63039    0.32834    1.000
    Si3281   Si       0.53686    0.67293    0.32915    1.000
    N3282    N        0.57203    0.69280    0.34495    1.000
    N3283    N        0.52094    0.68588    0.29031    1.000
    N3284    N        0.55637    0.57853    0.43056    1.000
    Si3285   Si       0.55227    0.61948    0.41509    1.000
    N3286    N        0.56901    0.51592    0.46460    1.000
    Si3287   Si       0.52319    0.60662    0.48154    1.000
    Si3288   Si       0.57513    0.55907    0.46559    1.000
    N3289    N        0.55043    0.57762    0.49764    1.000
    N3290    N        0.54518    0.68820    0.40550    1.000
    Si3291   Si       0.52407    0.67543    0.44397    1.000
    N3292    N        0.54024    0.63561    0.45319    1.000
    Si3293   Si       0.55101    0.58295    0.53933    1.000
    N3294    N        0.56144    0.62410    0.54860    1.000
    Si3295   Si       0.53396    0.54317    0.58812    1.000
    N3296    N        0.57055    0.55542    0.56959    1.000
    N3297    N        0.54854    0.61815    0.61722    1.000
    N3298    N        0.54500    0.68639    0.52957    1.000
    Si3299   Si       0.52603    0.64912    0.54178    1.000
    N3300    N        0.52354    0.75535    0.52044    1.000
    Si3301   Si       0.54221    0.72126    0.50274    1.000
    N3302    N        0.54723    0.53323    0.69289    1.000
    N3303    N        0.53241    0.59864    0.67829    1.000
    Si3304   Si       0.54994    0.58303    0.64222    1.000
    Si3305   Si       0.54732    0.57363    0.71136    1.000
    N3306    N        0.52484    0.55051    0.62866    1.000
    Si3307   Si       0.53327    0.51487    0.65627    1.000
    N3308    N        0.52317    0.72107    0.63610    1.000
    Si3309   Si       0.55278    0.75593    0.73791    1.000
    N3310    N        0.54307    0.75700    0.69076    1.000
    Si3311   Si       0.55097    0.65294    0.73724    1.000
    Si3312   Si       0.56016    0.73696    0.65565    1.000
    N3313    N        0.55080    0.62186    0.76714    1.000
    Si3314   Si       0.56494    0.55344    0.81720    1.000
    N3315    N        0.52681    0.57210    0.81083    1.000
    Si3316   Si       0.56181    0.66354    0.80799    1.000
    N3317    N        0.55669    0.68390    0.76694    1.000
    N3318    N        0.56424    0.75490    0.78242    1.000
    Si3319   Si       0.57468    0.72266    0.85651    1.000
    N3320    N        0.54870    0.75802    0.85260    1.000
    N3321    N        0.52167    0.65944    0.81771    1.000
    N3322    N        0.52804    0.60451    0.97258    1.000
    Si3323   Si       0.54635    0.56593    0.95966    1.000
    N3324    N        0.54627    0.55574    0.91745    1.000
    N3325    N        0.52936    0.53106    0.98049    1.000
    N3326    N        0.58114    0.62405    0.89005    1.000
    N3327    N        0.56344    0.69722    0.89026    1.000
    Si3328   Si       0.54108    0.75170    0.94154    1.000
    Si3329   Si       0.53496    0.64599    0.96166    1.000
    N3330    N        0.52397    0.65913    0.92301    1.000
    N3331    N        0.54216    0.74796    0.98549    1.000
    N3332    N        0.52436    0.67871    0.98811    1.000
    Si3333   Si       0.56688    0.65793    0.90908    1.000
    Si3334   Si       0.52006    0.69583    0.90102    1.000
    N3335    N        0.56186    0.85451    0.07209    1.000
    N3336    N        0.53881    0.78516    0.05005    1.000
    Si3337   Si       0.52931    0.82371    0.06802    1.000
    Si3338   Si       0.52353    0.78083    0.00571    1.000
    Si3339   Si       0.54981    0.85721    0.11378    1.000
    N3340    N        0.51604    0.83007    0.10926    1.000
    Si3341   Si       0.54674    0.95477    0.04099    1.000
    N3342    N        0.54951    0.92278    0.06957    1.000
    Si3343   Si       0.53106    0.92990    0.10862    1.000
    N3344    N        0.52517    0.94438    0.00429    1.000
    N3345    N        0.51624    0.98529    0.05602    1.000
    N3346    N        0.55374    0.79300    0.19897    1.000
    Si3347   Si       0.53024    0.86590    0.24033    1.000
    Si3348   Si       0.52252    0.79023    0.23011    1.000
    N3349    N        0.54613    0.87311    0.20152    1.000
    N3350    N        0.53466    0.99458    0.19167    1.000
    N3351    N        0.54845    0.96259    0.13072    1.000
    N3352    N        0.53442    0.89424    0.13223    1.000
    N3353    N        0.56821    0.92959    0.18506    1.000
    Si3354   Si       0.53185    0.90642    0.17364    1.000
    Si3355   Si       0.52512    0.99529    0.15117    1.000
    Si3356   Si       0.57044    0.97137    0.19592    1.000
    Si3357   Si       0.54361    0.84709    0.30820    1.000
    N3358    N        0.56149    0.86275    0.27148    1.000
    N3359    N        0.53734    0.76862    0.26545    1.000
    Si3360   Si       0.52327    0.77487    0.30760    1.000
    N3361    N        0.55290    0.76050    0.33724    1.000
    N3362    N        0.57651    0.82848    0.32850    1.000
    N3363    N        0.52984    0.88639    0.32342    1.000
    N3364    N        0.55430    0.94234    0.29341    1.000
    Si3365   Si       0.55322    0.97579    0.26660    1.000
    N3366    N        0.56538    0.92936    0.36423    1.000
    Si3367   Si       0.53890    0.89372    0.36544    1.000
    Si3368   Si       0.51969    0.91656    0.29425    1.000
    Si3369   Si       0.55343    0.86718    0.42887    1.000
    N3370    N        0.56251    0.86651    0.38679    1.000
    N3371    N        0.54178    0.79072    0.45624    1.000
    N3372    N        0.54660    0.80560    0.39142    1.000
    Si3373   Si       0.52098    0.81494    0.42574    1.000
    Si3374   Si       0.54785    0.76478    0.38041    1.000
    Si3375   Si       0.57676    0.76555    0.45077    1.000
    N3376    N        0.51685    0.85390    0.44466    1.000
    N3377    N        0.55943    0.91162    0.43159    1.000
    Si3378   Si       0.56349    0.96911    0.38623    1.000
    N3379    N        0.52595    0.96497    0.40697    1.000
    Si3380   Si       0.51785    0.92485    0.42274    1.000
    N3381    N        0.56337    0.92449    0.49762    1.000
    N3382    N        0.56517    0.83396    0.60282    1.000
    N3383    N        0.56282    0.80654    0.52809    1.000
    N3384    N        0.53594    0.77053    0.58975    1.000
    Si3385   Si       0.56717    0.87141    0.57764    1.000
    Si3386   Si       0.55450    0.76592    0.55156    1.000
    Si3387   Si       0.54803    0.79852    0.62134    1.000
    Si3388   Si       0.53069    0.79577    0.49901    1.000
    N3389    N        0.53204    0.88505    0.55448    1.000
    Si3390   Si       0.52890    0.91729    0.52461    1.000
    N3391    N        0.55203    0.94988    0.55095    1.000
    Si3392   Si       0.56741    0.96458    0.58943    1.000
    N3393    N        0.55287    0.99981    0.51622    1.000
    Si3394   Si       0.52114    0.98483    0.54586    1.000
    N3395    N        0.55817    0.00872    0.58339    1.000
    N3396    N        0.55211    0.83542    0.68099    1.000
    Si3397   Si       0.54629    0.84038    0.72428    1.000
    N3398    N        0.56092    0.80016    0.73743    1.000
    Si3399   Si       0.57034    0.79387    0.68947    1.000
    N3400    N        0.57315    0.87023    0.74444    1.000
    N3401    N        0.51836    0.88679    0.63649    1.000
    N3402    N        0.54597    0.95718    0.62928    1.000
    Si3403   Si       0.56001    0.93028    0.70767    1.000
    Si3404   Si       0.55422    0.91065    0.63596    1.000
    N3405    N        0.57598    0.91213    0.67268    1.000
    N3406    N        0.56870    0.97369    0.69782    1.000
    Si3407   Si       0.56705    0.98656    0.65381    1.000
    N3408    N        0.52671    0.91944    0.73488    1.000
    Si3409   Si       0.55602    0.01026    0.71967    1.000
    Si3410   Si       0.54579    0.83613    0.82786    1.000
    N3411    N        0.56725    0.87055    0.85095    1.000
    N3412    N        0.52461    0.82210    0.86479    1.000
    Si3413   Si       0.53125    0.76482    0.81223    1.000
    N3414    N        0.52824    0.87034    0.80404    1.000
    N3415    N        0.52019    0.80568    0.80220    1.000
    Si3416   Si       0.54274    0.89173    0.76695    1.000
    Si3417   Si       0.53254    0.89908    0.83801    1.000
    N3418    N        0.57075    0.91661    0.79289    1.000
    Si3419   Si       0.53949    0.95682    0.86158    1.000
    N3420    N        0.57224    0.97578    0.84193    1.000
    N3421    N        0.52595    0.82023    0.98766    1.000
    N3422    N        0.52838    0.78824    0.92331    1.000
    Si3423   Si       0.53895    0.82477    0.94683    1.000
    Si3424   Si       0.52249    0.78176    0.88011    1.000
    Si3425   Si       0.52464    0.00439    0.92335    1.000
    Si3426   Si       0.54438    0.95066    0.96583    1.000
    N3427    N        0.55655    0.99015    0.95183    1.000
    Si3428   Si       0.53702    0.89639    0.91390    1.000
    N3429    N        0.55145    0.91987    0.87980    1.000
    N3430    N        0.59641    0.10767    0.09341    1.000
    Si3431   Si       0.62734    0.03377    0.00521    1.000
    Si3432   Si       0.59823    0.12907    0.01232    1.000
    N3433    N        0.62853    0.02130    0.04733    1.000
    N3434    N        0.59932    0.16167    0.04474    1.000
    Si3435   Si       0.61207    0.21991    0.10621    1.000
    Si3436   Si       0.61420    0.14580    0.08171    1.000
    N3437    N        0.60832    0.22855    0.06502    1.000
    N3438    N        0.62179    0.17846    0.11116    1.000
    Si3439   Si       0.58360    0.20311    0.04076    1.000
    N3440    N        0.59081    0.21571    0.99965    1.000
    Si3441   Si       0.62978    0.25909    0.04277    1.000
    N3442    N        0.62542    0.10553    0.22496    1.000
    Si3443   Si       0.61623    0.09595    0.13129    1.000
    N3444    N        0.60220    0.05445    0.13619    1.000
    Si3445   Si       0.60750    0.03644    0.17691    1.000
    Si3446   Si       0.58553    0.08813    0.23239    1.000
    N3447    N        0.60636    0.12906    0.15990    1.000
    N3448    N        0.58298    0.05313    0.20787    1.000
    Si3449   Si       0.59223    0.16910    0.14390    1.000
    Si3450   Si       0.60463    0.14001    0.20160    1.000
    N3451    N        0.58755    0.18476    0.18421    1.000
    N3452    N        0.63475    0.16718    0.21929    1.000
    N3453    N        0.60109    0.23427    0.23095    1.000
    Si3454   Si       0.62159    0.20592    0.20331    1.000
    N3455    N        0.61847    0.04653    0.32934    1.000
    Si3456   Si       0.61946    0.06454    0.28898    1.000
    N3457    N        0.58155    0.07788    0.27375    1.000
    Si3458   Si       0.58327    0.01722    0.32989    1.000
    N3459    N        0.63520    0.11140    0.36721    1.000
    Si3460   Si       0.62191    0.23169    0.27121    1.000
    N3461    N        0.59293    0.16563    0.34226    1.000
    N3462    N        0.61182    0.18974    0.28118    1.000
    N3463    N        0.59848    0.23301    0.36025    1.000
    Si3464   Si       0.63383    0.15601    0.35455    1.000
    Si3465   Si       0.57709    0.17734    0.30340    1.000
    N3466    N        0.62571    0.09534    0.43511    1.000
    Si3467   Si       0.60682    0.10489    0.39848    1.000
    Si3468   Si       0.59216    0.02015    0.46975    1.000
    N3469    N        0.60468    0.02887    0.42691    1.000
    N3470    N        0.62708    0.04166    0.48291    1.000
    Si3471   Si       0.61685    0.21717    0.39661    1.000
    Si3472   Si       0.58217    0.16357    0.44756    1.000
    N3473    N        0.58857    0.20252    0.42739    1.000
    N3474    N        0.63018    0.25450    0.41878    1.000
    N3475    N        0.58506    0.14033    0.41012    1.000
    N3476    N        0.63686    0.24376    0.49154    1.000
    N3477    N        0.61622    0.12196    0.59342    1.000
    N3478    N        0.58607    0.05353    0.54049    1.000
    Si3479   Si       0.62404    0.06223    0.52064    1.000
    N3480    N        0.62900    0.10605    0.52270    1.000
    Si3481   Si       0.59462    0.01412    0.55986    1.000
    N3482    N        0.62849    0.02190    0.58751    1.000
    Si3483   Si       0.63534    0.09335    0.62053    1.000
    Si3484   Si       0.59705    0.25072    0.51226    1.000
    N3485    N        0.59241    0.18490    0.59918    1.000
    Si3486   Si       0.60688    0.20053    0.56251    1.000
    N3487    N        0.62381    0.16908    0.53877    1.000
    Si3488   Si       0.61935    0.14514    0.50262    1.000
    N3489    N        0.57933    0.22264    0.54016    1.000
    N3490    N        0.60479    0.07716    0.64651    1.000
    Si3491   Si       0.61049    0.04330    0.67450    1.000
    N3492    N        0.58179    0.11716    0.70591    1.000
    Si3493   Si       0.60600    0.12699    0.73994    1.000
    Si3494   Si       0.58453    0.25726    0.64438    1.000
    N3495    N        0.61287    0.17474    0.67091    1.000
    N3496    N        0.61092    0.17140    0.73919    1.000
    N3497    N        0.62035    0.23397    0.64105    1.000
    Si3498   Si       0.62223    0.19148    0.63148    1.000
    N3499    N        0.60691    0.23456    0.72224    1.000
    Si3500   Si       0.62499    0.19643    0.70633    1.000
    Si3501   Si       0.57942    0.14831    0.67793    1.000
    N3502    N        0.61280    0.10479    0.83324    1.000
    N3503    N        0.61782    0.04068    0.80441    1.000
    N3504    N        0.58510    0.04192    0.85968    1.000
    Si3505   Si       0.58978    0.06897    0.82398    1.000
    N3506    N        0.58198    0.12139    0.77555    1.000
    Si3507   Si       0.59719    0.20486    0.76985    1.000
    Si3508   Si       0.60432    0.14099    0.80737    1.000
    N3509    N        0.58465    0.17987    0.80446    1.000
    N3510    N        0.61897    0.25420    0.85802    1.000
    Si3511   Si       0.57587    0.05172    0.90030    1.000
    N3512    N        0.58728    0.04937    0.98973    1.000
    N3513    N        0.60601    0.02821    0.92161    1.000
    Si3514   Si       0.60708    0.11455    0.93746    1.000
    Si3515   Si       0.59070    0.01544    0.95992    1.000
    N3516    N        0.58034    0.09670    0.90688    1.000
    N3517    N        0.58510    0.13288    0.97186    1.000
    N3518    N        0.58441    0.20898    0.93218    1.000
    Si3519   Si       0.61387    0.21918    0.96436    1.000
    N3520    N        0.62048    0.14969    0.91646    1.000
    Si3521   Si       0.60394    0.18535    0.89965    1.000
    Si3522   Si       0.59497    0.32173    0.06302    1.000
    N3523    N        0.60342    0.36515    0.07229    1.000
    N3524    N        0.60827    0.29429    0.03166    1.000
    N3525    N        0.61990    0.30888    0.09864    1.000
    Si3526   Si       0.59436    0.37809    0.11496    1.000
    N3527    N        0.62175    0.38738    0.00716    1.000
    Si3528   Si       0.58048    0.38424    0.99193    1.000
    N3529    N        0.57914    0.48819    0.11400    1.000
    N3530    N        0.60214    0.45235    0.04940    1.000
    N3531    N        0.60623    0.42033    0.11338    1.000
    Si3532   Si       0.58561    0.45048    0.08937    1.000
    N3533    N        0.60974    0.28017    0.16997    1.000
    Si3534   Si       0.60168    0.31130    0.14135    1.000
    N3535    N        0.61499    0.35463    0.14705    1.000
    Si3536   Si       0.58484    0.26662    0.20409    1.000
    N3537    N        0.58586    0.29937    0.23268    1.000
    N3538    N        0.58492    0.37016    0.22960    1.000
    Si3539   Si       0.62755    0.36676    0.24361    1.000
    Si3540   Si       0.60781    0.50846    0.22271    1.000
    Si3541   Si       0.63632    0.45053    0.20486    1.000
    N3542    N        0.59559    0.45894    0.22053    1.000
    Si3543   Si       0.58286    0.41273    0.21164    1.000
    N3544    N        0.62667    0.40604    0.20508    1.000
    Si3545   Si       0.60692    0.49469    0.14861    1.000
    N3546    N        0.62976    0.46097    0.16265    1.000
    Si3547   Si       0.61462    0.26915    0.33571    1.000
    Si3548   Si       0.59114    0.34800    0.32868    1.000
    Si3549   Si       0.62524    0.29585    0.25773    1.000
    N3550    N        0.58800    0.30435    0.33932    1.000
    N3551    N        0.61954    0.26818    0.29210    1.000
    N3552    N        0.63324    0.35748    0.33662    1.000
    N3553    N        0.58770    0.37205    0.29435    1.000
    N3554    N        0.59196    0.50169    0.26571    1.000
    Si3555   Si       0.60358    0.48243    0.30555    1.000
    N3556    N        0.58842    0.50549    0.34077    1.000
    N3557    N        0.61677    0.30846    0.46736    1.000
    N3558    N        0.61951    0.32758    0.40133    1.000
    Si3559   Si       0.60406    0.33992    0.44012    1.000
    N3560    N        0.61923    0.37750    0.45486    1.000
    Si3561   Si       0.61723    0.26509    0.45841    1.000
    Si3562   Si       0.63501    0.36121    0.37956    1.000
    Si3563   Si       0.61800    0.41201    0.42900    1.000
    N3564    N        0.63327    0.49787    0.43730    1.000
    N3565    N        0.59737    0.44389    0.44986    1.000
    N3566    N        0.60545    0.39172    0.39147    1.000
    Si3567   Si       0.59212    0.48635    0.43890    1.000
    N3568    N        0.60348    0.28746    0.53718    1.000
    Si3569   Si       0.60273    0.29001    0.57964    1.000
    N3570    N        0.60892    0.35377    0.52072    1.000
    Si3571   Si       0.62413    0.31560    0.50911    1.000
    N3572    N        0.58753    0.33124    0.58544    1.000
    Si3573   Si       0.62002    0.38734    0.49689    1.000
    N3574    N        0.60037    0.42237    0.51241    1.000
    Si3575   Si       0.59700    0.45239    0.54330    1.000
    Si3576   Si       0.60855    0.42600    0.60663    1.000
    N3577    N        0.62821    0.48151    0.55191    1.000
    Si3578   Si       0.59002    0.34744    0.62500    1.000
    Si3579   Si       0.60896    0.37316    0.71512    1.000
    N3580    N        0.58759    0.29347    0.66683    1.000
    Si3581   Si       0.62476    0.31221    0.67811    1.000
    N3582    N        0.62743    0.34393    0.64745    1.000
    N3583    N        0.62312    0.33022    0.71729    1.000
    Si3584   Si       0.63526    0.49838    0.71058    1.000
    N3585    N        0.58658    0.39122    0.62339    1.000
    Si3586   Si       0.59024    0.47650    0.66134    1.000
    N3587    N        0.63392    0.45666    0.71672    1.000
    N3588    N        0.61212    0.44484    0.64538    1.000
    N3589    N        0.63373    0.39563    0.68969    1.000
    N3590    N        0.61971    0.50679    0.67103    1.000
    Si3591   Si       0.61646    0.32962    0.81571    1.000
    N3592    N        0.61895    0.31229    0.77591    1.000
    N3593    N        0.62302    0.37169    0.81638    1.000
    N3594    N        0.58358    0.30931    0.83884    1.000
    Si3595   Si       0.58507    0.32469    0.75222    1.000
    Si3596   Si       0.57784    0.26864    0.85580    1.000
    Si3597   Si       0.62637    0.43468    0.75311    1.000
    N3598    N        0.62342    0.43777    0.84344    1.000
    Si3599   Si       0.60345    0.39989    0.84190    1.000
    N3600    N        0.60155    0.45952    0.77999    1.000
    N3601    N        0.60685    0.39713    0.75104    1.000
    Si3602   Si       0.63459    0.46050    0.80889    1.000
    N3603    N        0.62190    0.30788    0.90661    1.000
    Si3604   Si       0.59630    0.31304    0.99260    1.000
    N3605    N        0.63386    0.32662    0.97244    1.000
    Si3606   Si       0.58001    0.30191    0.91827    1.000
    N3607    N        0.60021    0.38829    0.88407    1.000
    N3608    N        0.62694    0.25812    0.95308    1.000
    Si3609   Si       0.58628    0.47647    0.92093    1.000
    N3610    N        0.62165    0.45104    0.98419    1.000
    Si3611   Si       0.61973    0.42313    0.95039    1.000
    N3612    N        0.59549    0.50725    0.94940    1.000
    Si3613   Si       0.59784    0.48899    0.98828    1.000
    N3614    N        0.58569    0.39466    0.95200    1.000
    N3615    N        0.61623    0.44690    0.91491    1.000
    N3616    N        0.57705    0.50088    0.88437    1.000
    Si3617   Si       0.60570    0.54929    0.03695    1.000
    N3618    N        0.59714    0.59190    0.02509    1.000
    Si3619   Si       0.62896    0.55444    0.10930    1.000
    N3620    N        0.62216    0.51933    0.00794    1.000
    N3621    N        0.58608    0.55638    0.11911    1.000
    Si3622   Si       0.57991    0.62333    0.04610    1.000
    N3623    N        0.63582    0.55038    0.06712    1.000
    Si3624   Si       0.60388    0.65170    0.09416    1.000
    Si3625   Si       0.60380    0.70217    0.03830    1.000
    N3626    N        0.60109    0.65970    0.05111    1.000
    N3627    N        0.59380    0.74684    0.09287    1.000
    Si3628   Si       0.63124    0.75527    0.07299    1.000
    N3629    N        0.60214    0.75703    0.03356    1.000
    N3630    N        0.59091    0.68413    0.11878    1.000
    N3631    N        0.60572    0.55255    0.23406    1.000
    N3632    N        0.60740    0.62432    0.14675    1.000
    N3633    N        0.58801    0.51375    0.18233    1.000
    N3634    N        0.62596    0.61841    0.23116    1.000
    N3635    N        0.62377    0.68691    0.18178    1.000
    N3636    N        0.59194    0.74051    0.22173    1.000
    Si3637   Si       0.59303    0.66589    0.15748    1.000
    Si3638   Si       0.61652    0.70467    0.21917    1.000
    Si3639   Si       0.60976    0.54317    0.34588    1.000
    N3640    N        0.59126    0.58225    0.35120    1.000
    Si3641   Si       0.59330    0.54568    0.27533    1.000
    N3642    N        0.62508    0.54832    0.30436    1.000
    N3643    N        0.60113    0.62365    0.29622    1.000
    Si3644   Si       0.59323    0.63372    0.25505    1.000
    N3645    N        0.59515    0.73209    0.29118    1.000
    Si3646   Si       0.62186    0.69984    0.27983    1.000
    Si3647   Si       0.58517    0.73208    0.33182    1.000
    N3648    N        0.61673    0.75188    0.35391    1.000
    N3649    N        0.60013    0.67646    0.25022    1.000
    Si3650   Si       0.61677    0.60551    0.37795    1.000
    N3651    N        0.61770    0.56483    0.46673    1.000
    N3652    N        0.57797    0.73675    0.48369    1.000
    N3653    N        0.58604    0.63408    0.39167    1.000
    N3654    N        0.57949    0.75347    0.41037    1.000
    Si3655   Si       0.58254    0.67784    0.38569    1.000
    N3656    N        0.61857    0.69802    0.40219    1.000
    Si3657   Si       0.61844    0.74084    0.39528    1.000
    N3658    N        0.62840    0.65207    0.45562    1.000
    N3659    N        0.61480    0.60775    0.58711    1.000
    Si3660   Si       0.61030    0.56396    0.58033    1.000
    N3661    N        0.63319    0.53630    0.60635    1.000
    N3662    N        0.63229    0.56003    0.54258    1.000
    N3663    N        0.63449    0.61607    0.50652    1.000
    Si3664   Si       0.57868    0.63168    0.58832    1.000
    N3665    N        0.61370    0.68583    0.51978    1.000
    N3666    N        0.58707    0.67465    0.59011    1.000
    Si3667   Si       0.62325    0.75023    0.56781    1.000
    N3668    N        0.58325    0.73559    0.55142    1.000
    Si3669   Si       0.58168    0.69269    0.55219    1.000
    Si3670   Si       0.61623    0.72688    0.50207    1.000
    Si3671   Si       0.61589    0.69218    0.62361    1.000
    Si3672   Si       0.61213    0.62555    0.71445    1.000
    N3673    N        0.60516    0.52038    0.73686    1.000
    N3674    N        0.58947    0.58905    0.71956    1.000
    N3675    N        0.59009    0.56992    0.64513    1.000
    Si3676   Si       0.60721    0.53086    0.63832    1.000
    Si3677   Si       0.61148    0.56215    0.74816    1.000
    N3678    N        0.58332    0.65845    0.70929    1.000
    N3679    N        0.58627    0.72723    0.72872    1.000
    Si3680   Si       0.60073    0.69774    0.69993    1.000
    N3681    N        0.59189    0.70612    0.65767    1.000
    Si3682   Si       0.59814    0.60636    0.85624    1.000
    N3683    N        0.59130    0.56948    0.78563    1.000
    Si3684   Si       0.59168    0.61259    0.78170    1.000
    N3685    N        0.62149    0.63314    0.75825    1.000
    N3686    N        0.58664    0.62741    0.82098    1.000
    N3687    N        0.58212    0.56622    0.85443    1.000
    Si3688   Si       0.63353    0.70997    0.82466    1.000
    Si3689   Si       0.58511    0.71632    0.77481    1.000
    N3690    N        0.62851    0.71778    0.78096    1.000
    N3691    N        0.61763    0.73118    0.86320    1.000
    N3692    N        0.58360    0.69853    0.82158    1.000
    N3693    N        0.59011    0.57124    0.96562    1.000
    N3694    N        0.62329    0.55374    0.90930    1.000
    Si3695   Si       0.61678    0.59808    0.98689    1.000
    Si3696   Si       0.62335    0.54209    0.95351    1.000
    Si3697   Si       0.58259    0.54495    0.89452    1.000
    N3698    N        0.57852    0.65254    0.95124    1.000
    Si3699   Si       0.61463    0.67371    0.96451    1.000
    Si3700   Si       0.61383    0.73050    0.90761    1.000
    N3701    N        0.58404    0.75406    0.92931    1.000
    N3702    N        0.63271    0.63808    0.98221    1.000
    N3703    N        0.62908    0.69508    0.92915    1.000
    N3704    N        0.59879    0.69929    0.99572    1.000
    N3705    N        0.61507    0.82573    0.01571    1.000
    Si3706   Si       0.62289    0.86571    0.00659    1.000
    Si3707   Si       0.62970    0.78512    0.01513    1.000
    N3708    N        0.60071    0.89824    0.02685    1.000
    N3709    N        0.60779    0.89453    0.09977    1.000
    Si3710   Si       0.61378    0.98332    0.05952    1.000
    N3711    N        0.58748    0.96329    0.03012    1.000
    N3712    N        0.59427    0.99462    0.09660    1.000
    Si3713   Si       0.60780    0.93533    0.00452    1.000
    Si3714   Si       0.58164    0.89194    0.06341    1.000
    Si3715   Si       0.61353    0.86723    0.13388    1.000
    N3716    N        0.60535    0.84577    0.20810    1.000
    N3717    N        0.60404    0.78327    0.16337    1.000
    Si3718   Si       0.62780    0.82304    0.23908    1.000
    Si3719   Si       0.58256    0.82030    0.17917    1.000
    N3720    N        0.57886    0.84222    0.14143    1.000
    N3721    N        0.60432    0.90581    0.23743    1.000
    N3722    N        0.62197    0.89336    0.16633    1.000
    N3723    N        0.59577    0.99548    0.16850    1.000
    N3724    N        0.58510    0.97219    0.23602    1.000
    Si3725   Si       0.59130    0.88840    0.19916    1.000
    Si3726   Si       0.59361    0.97022    0.13234    1.000
    Si3727   Si       0.62146    0.94607    0.23693    1.000
    Si3728   Si       0.60599    0.82003    0.29821    1.000
    N3729    N        0.59869    0.79907    0.26146    1.000
    N3730    N        0.62975    0.85076    0.27377    1.000
    Si3731   Si       0.57879    0.82769    0.37141    1.000
    Si3732   Si       0.58110    0.75835    0.26081    1.000
    Si3733   Si       0.60085    0.88282    0.27418    1.000
    N3734    N        0.60617    0.90385    0.31122    1.000
    N3735    N        0.60442    0.97696    0.33074    1.000
    Si3736   Si       0.58235    0.93833    0.32471    1.000
    Si3737   Si       0.63461    0.97299    0.36143    1.000
    Si3738   Si       0.63740    0.89982    0.34151    1.000
    N3739    N        0.62234    0.81805    0.38010    1.000
    Si3740   Si       0.61593    0.82953    0.46732    1.000
    N3741    N        0.61113    0.78952    0.45822    1.000
    N3742    N        0.58398    0.85994    0.45845    1.000
    Si3743   Si       0.62426    0.96652    0.44002    1.000
    N3744    N        0.59507    0.97691    0.46974    1.000
    N3745    N        0.62169    0.92258    0.44406    1.000
    N3746    N        0.62543    0.88840    0.38295    1.000
    Si3747   Si       0.59825    0.91663    0.40499    1.000
    N3748    N        0.60777    0.96223    0.39828    1.000
    Si3749   Si       0.58951    0.90413    0.47152    1.000
    N3750    N        0.61282    0.79088    0.56836    1.000
    N3751    N        0.60675    0.85561    0.56155    1.000
    Si3752   Si       0.60263    0.81802    0.53657    1.000
    Si3753   Si       0.60852    0.82543    0.59492    1.000
    N3754    N        0.62995    0.83291    0.50907    1.000
    Si3755   Si       0.63392    0.87212    0.53080    1.000
    N3756    N        0.57926    0.90527    0.60211    1.000
    N3757    N        0.62278    0.89836    0.50037    1.000
    N3758    N        0.60970    0.96221    0.60417    1.000
    N3759    N        0.60954    0.97992    0.53624    1.000
    Si3760   Si       0.61981    0.91922    0.60164    1.000
    Si3761   Si       0.57769    0.96449    0.50792    1.000
    Si3762   Si       0.63473    0.99439    0.62070    1.000
    Si3763   Si       0.62348    0.78649    0.65389    1.000
    N3764    N        0.61468    0.79309    0.69527    1.000
    N3765    N        0.62729    0.87493    0.70335    1.000
    N3766    N        0.57933    0.77961    0.64625    1.000
    N3767    N        0.63237    0.82221    0.62922    1.000
    Si3768   Si       0.61086    0.88814    0.74119    1.000
    Si3769   Si       0.62012    0.90692    0.67413    1.000
    N3770    N        0.62248    0.00060    0.73371    1.000
    N3771    N        0.59677    0.92938    0.73172    1.000
    Si3772   Si       0.61009    0.96523    0.71164    1.000
    N3773    N        0.60659    0.00601    0.65251    1.000
    N3774    N        0.63654    0.94741    0.68387    1.000
    N3775    N        0.62476    0.79331    0.76846    1.000
    Si3776   Si       0.62537    0.81323    0.81150    1.000
    N3777    N        0.58269    0.81542    0.81272    1.000
    Si3778   Si       0.58129    0.79411    0.77472    1.000
    N3779    N        0.61794    0.92092    0.84300    1.000
    N3780    N        0.61700    0.97723    0.79837    1.000
    Si3781   Si       0.59315    0.94485    0.81545    1.000
    N3782    N        0.63430    0.99042    0.86478    1.000
    Si3783   Si       0.60349    0.00642    0.83798    1.000
    Si3784   Si       0.60718    0.01006    0.77199    1.000
    N3785    N        0.62250    0.86513    0.88693    1.000
    Si3786   Si       0.60760    0.78834    0.94426    1.000
    Si3787   Si       0.60796    0.85219    0.92720    1.000
    N3788    N        0.63002    0.87360    0.96041    1.000
    N3789    N        0.58124    0.82169    0.94890    1.000
    N3790    N        0.57882    0.88407    0.92398    1.000
    Si3791   Si       0.60970    0.90804    0.94305    1.000
    N3792    N        0.62351    0.99707    0.98093    1.000
    N3793    N        0.58536    0.93300    0.96846    1.000
    N3794    N        0.62177    0.92959    0.90389    1.000
    Si3795   Si       0.59279    0.89906    0.87814    1.000
    Si3796   Si       0.65988    0.03099    0.07448    1.000
    N3797    N        0.67594    0.07281    0.07185    1.000
    Si3798   Si       0.66493    0.10793    0.04729    1.000
    Si3799   Si       0.68212    0.11675    0.11000    1.000
    N3800    N        0.66614    0.02348    0.11882    1.000
    N3801    N        0.63848    0.11152    0.01219    1.000
    N3802    N        0.65665    0.13565    0.08006    1.000
    N3803    N        0.65871    0.23807    0.01720    1.000
    Si3804   Si       0.68247    0.24468    0.09845    1.000
    N3805    N        0.68636    0.20468    0.08058    1.000
    Si3806   Si       0.66570    0.17385    0.10207    1.000
    N3807    N        0.64966    0.04251    0.18576    1.000
    Si3808   Si       0.67379    0.05151    0.14940    1.000
    Si3809   Si       0.66542    0.04831    0.22505    1.000
    N3810    N        0.65750    0.09192    0.13528    1.000
    N3811    N        0.68907    0.08496    0.23194    1.000
    Si3812   Si       0.66673    0.12298    0.22242    1.000
    N3813    N        0.68912    0.01046    0.23432    1.000
    Si3814   Si       0.67762    0.24557    0.22589    1.000
    N3815    N        0.68911    0.15469    0.13239    1.000
    N3816    N        0.64564    0.24107    0.12429    1.000
    N3817    N        0.65696    0.22673    0.19153    1.000
    Si3818   Si       0.64723    0.07881    0.34095    1.000
    N3819    N        0.68593    0.05773    0.34300    1.000
    N3820    N        0.64576    0.09729    0.30203    1.000
    Si3821   Si       0.67629    0.12693    0.30200    1.000
    Si3822   Si       0.69209    0.01423    0.34311    1.000
    N3823    N        0.64096    0.03884    0.26032    1.000
    Si3824   Si       0.64940    0.17783    0.25848    1.000
    N3825    N        0.66880    0.16134    0.32834    1.000
    N3826    N        0.67935    0.14568    0.26178    1.000
    N3827    N        0.66403    0.21945    0.25924    1.000
    Si3828   Si       0.65915    0.11846    0.45071    1.000
    N3829    N        0.68757    0.12639    0.41707    1.000
    N3830    N        0.67878    0.08888    0.47316    1.000
    N3831    N        0.67497    0.05172    0.41640    1.000
    Si3832   Si       0.63744    0.05541    0.44134    1.000
    Si3833   Si       0.68251    0.00985    0.41189    1.000
    N3834    N        0.64417    0.18244    0.38881    1.000
    Si3835   Si       0.68542    0.16834    0.40251    1.000
    N3836    N        0.63787    0.15202    0.46498    1.000
    N3837    N        0.66350    0.04769    0.53555    1.000
    N3838    N        0.66554    0.07844    0.59531    1.000
    Si3839   Si       0.66855    0.03949    0.57763    1.000
    Si3840   Si       0.68870    0.05547    0.50167    1.000
    Si3841   Si       0.63979    0.13058    0.55818    1.000
    N3842    N        0.68039    0.14565    0.55486    1.000
    Si3843   Si       0.68248    0.23456    0.57710    1.000
    N3844    N        0.63996    0.22703    0.57467    1.000
    Si3845   Si       0.67887    0.24318    0.50039    1.000
    Si3846   Si       0.69229    0.16423    0.59335    1.000
    N3847    N        0.65784    0.17025    0.62048    1.000
    N3848    N        0.68846    0.24816    0.62036    1.000
    N3849    N        0.68601    0.25906    0.54174    1.000
    N3850    N        0.69870    0.20528    0.50110    1.000
    Si3851   Si       0.66046    0.01821    0.72215    1.000
    Si3852   Si       0.68786    0.11803    0.72755    1.000
    N3853    N        0.65076    0.04634    0.68822    1.000
    N3854    N        0.66112    0.10915    0.65072    1.000
    Si3855   Si       0.67626    0.07756    0.67308    1.000
    N3856    N        0.64656    0.11112    0.73766    1.000
    N3857    N        0.66475    0.21160    0.71340    1.000
    Si3858   Si       0.68303    0.14941    0.65126    1.000
    Si3859   Si       0.64923    0.24003    0.74253    1.000
    N3860    N        0.68487    0.14882    0.69731    1.000
    Si3861   Si       0.65903    0.05052    0.79705    1.000
    N3862    N        0.67505    0.08918    0.80596    1.000
    Si3863   Si       0.65518    0.11486    0.83269    1.000
    N3864    N        0.67391    0.03575    0.75828    1.000
    N3865    N        0.67767    0.11290    0.87024    1.000
    N3866    N        0.69174    0.02838    0.81820    1.000
    Si3867   Si       0.66428    0.19374    0.80373    1.000
    N3868    N        0.67998    0.21672    0.83912    1.000
    N3869    N        0.64823    0.15348    0.81321    1.000
    Si3870   Si       0.65395    0.23235    0.86878    1.000
    N3871    N        0.63804    0.21867    0.77896    1.000
    Si3872   Si       0.66306    0.09352    0.97955    1.000
    Si3873   Si       0.67152    0.08809    0.90644    1.000
    N3874    N        0.66760    0.04895    0.88693    1.000
    N3875    N        0.64413    0.09211    0.94075    1.000
    Si3876   Si       0.64231    0.01614    0.90137    1.000
    N3877    N        0.66608    0.05077    0.99483    1.000
    N3878    N        0.64689    0.19146    0.96625    1.000
    Si3879   Si       0.67647    0.20617    0.99533    1.000
    Si3880   Si       0.65572    0.17174    0.92804    1.000
    N3881    N        0.64425    0.20303    0.89891    1.000
    Si3882   Si       0.66123    0.31219    0.08712    1.000
    N3883    N        0.66150    0.34026    0.05289    1.000
    N3884    N        0.66736    0.27278    0.06720    1.000
    Si3885   Si       0.63626    0.37569    0.04811    1.000
    Si3886   Si       0.69512    0.33323    0.02617    1.000
    Si3887   Si       0.69154    0.26137    0.03294    1.000
    Si3888   Si       0.69228    0.43050    0.07892    1.000
    N3889    N        0.66933    0.47218    0.02389    1.000
    N3890    N        0.65966    0.41183    0.05403    1.000
    N3891    N        0.66915    0.45957    0.10632    1.000
    Si3892   Si       0.67646    0.50120    0.11833    1.000
    Si3893   Si       0.64005    0.44122    0.02419    1.000
    Si3894   Si       0.66392    0.50829    0.99918    1.000
    N3895    N        0.67574    0.29103    0.16924    1.000
    Si3896   Si       0.67503    0.31355    0.20655    1.000
    N3897    N        0.65004    0.34858    0.20791    1.000
    N3898    N        0.65854    0.28233    0.23438    1.000
    Si3899   Si       0.63885    0.37647    0.17618    1.000
    Si3900   Si       0.64692    0.25799    0.16304    1.000
    N3901    N        0.64998    0.50874    0.21327    1.000
    Si3902   Si       0.68765    0.49367    0.23394    1.000
    N3903    N        0.66635    0.45223    0.23508    1.000
    N3904    N        0.66569    0.40180    0.15282    1.000
    Si3905   Si       0.64455    0.43372    0.13100    1.000
    N3906    N        0.69958    0.51083    0.15444    1.000
    N3907    N        0.65272    0.27611    0.35623    1.000
    Si3908   Si       0.65958    0.35949    0.30010    1.000
    Si3909   Si       0.69427    0.26531    0.34721    1.000
    N3910    N        0.63957    0.33391    0.27116    1.000
    N3911    N        0.65571    0.39055    0.26889    1.000
    Si3912   Si       0.68218    0.47318    0.30476    1.000
    Si3913   Si       0.68363    0.41984    0.25721    1.000
    N3914    N        0.64059    0.46617    0.31322    1.000
    N3915    N        0.67707    0.50501    0.27548    1.000
    Si3916   Si       0.64416    0.29020    0.39759    1.000
    N3917    N        0.67550    0.30095    0.42655    1.000
    N3918    N        0.67730    0.36774    0.38617    1.000
    Si3919   Si       0.68872    0.40817    0.39516    1.000
    N3920    N        0.65635    0.43033    0.41521    1.000
    N3921    N        0.68671    0.45856    0.46838    1.000
    Si3922   Si       0.66520    0.47015    0.43208    1.000
    N3923    N        0.65912    0.35833    0.58176    1.000
    N3924    N        0.66616    0.32031    0.51794    1.000
    Si3925   Si       0.66583    0.35812    0.53890    1.000
    Si3926   Si       0.65708    0.33128    0.61518    1.000
    N3927    N        0.64004    0.29263    0.60407    1.000
    Si3928   Si       0.67455    0.39593    0.59632    1.000
    N3929    N        0.66038    0.39194    0.51128    1.000
    Si3930   Si       0.66194    0.45703    0.56797    1.000
    N3931    N        0.66853    0.47592    0.60652    1.000
    N3932    N        0.69045    0.45171    0.53584    1.000
    Si3933   Si       0.69259    0.48188    0.50336    1.000
    N3934    N        0.64037    0.42090    0.57929    1.000
    N3935    N        0.69915    0.37169    0.69586    1.000
    N3936    N        0.65761    0.28729    0.66991    1.000
    Si3937   Si       0.66355    0.37185    0.66640    1.000
    N3938    N        0.67004    0.27858    0.73625    1.000
    N3939    N        0.68974    0.34343    0.63995    1.000
    Si3940   Si       0.69243    0.27808    0.69715    1.000
    Si3941   Si       0.65175    0.26390    0.63407    1.000
    Si3942   Si       0.64217    0.43719    0.67673    1.000
    N3943    N        0.66757    0.40635    0.63780    1.000
    N3944    N        0.67783    0.46186    0.67014    1.000
    N3945    N        0.65330    0.31754    0.83562    1.000
    N3946    N        0.66758    0.35676    0.76154    1.000
    N3947    N        0.68877    0.37716    0.82713    1.000
    Si3948   Si       0.65142    0.31813    0.74813    1.000
    Si3949   Si       0.69227    0.33556    0.84023    1.000
    Si3950   Si       0.63832    0.29292    0.86841    1.000
    Si3951   Si       0.65933    0.38438    0.79466    1.000
    N3952    N        0.65258    0.49777    0.81808    1.000
    N3953    N        0.65992    0.42893    0.78282    1.000
    Si3954   Si       0.67722    0.50762    0.85079    1.000
    N3955    N        0.67255    0.26932    0.88133    1.000
    N3956    N        0.68873    0.29511    0.93832    1.000
    Si3957   Si       0.64528    0.29588    0.94316    1.000
    Si3958   Si       0.64862    0.36605    0.97909    1.000
    N3959    N        0.68937    0.36250    0.99321    1.000
    Si3960   Si       0.64334    0.44308    0.88139    1.000
    Si3961   Si       0.68625    0.49025    0.92413    1.000
    Si3962   Si       0.68906    0.41092    0.92633    1.000
    N3963    N        0.67859    0.41803    0.88358    1.000
    N3964    N        0.65356    0.39766    0.94968    1.000
    N3965    N        0.66623    0.48195    0.88593    1.000
    N3966    N        0.66168    0.51242    0.95594    1.000
    Si3967   Si       0.67693    0.55014    0.05836    1.000
    Si3968   Si       0.67538    0.61383    0.09303    1.000
    N3969    N        0.69017    0.53584    0.01901    1.000
    N3970    N        0.69104    0.59048    0.05730    1.000
    N3971    N        0.65750    0.58507    0.11923    1.000
    N3972    N        0.69675    0.52326    0.08654    1.000
    Si3973   Si       0.66270    0.68806    0.09475    1.000
    N3974    N        0.64664    0.64710    0.09532    1.000
    Si3975   Si       0.68559    0.70913    0.03941    1.000
    N3976    N        0.68609    0.68338    0.00433    1.000
    N3977    N        0.64523    0.71289    0.05939    1.000
    N3978    N        0.65391    0.57154    0.18460    1.000
    Si3979   Si       0.67633    0.53234    0.18541    1.000
    Si3980   Si       0.64589    0.60473    0.15656    1.000
    Si3981   Si       0.63877    0.57715    0.22514    1.000
    N3982    N        0.63943    0.51818    0.13103    1.000
    N3983    N        0.67312    0.63693    0.16751    1.000
    Si3984   Si       0.69081    0.71414    0.23705    1.000
    N3985    N        0.69444    0.69527    0.19728    1.000
    Si3986   Si       0.68170    0.74238    0.14167    1.000
    N3987    N        0.66500    0.70384    0.13394    1.000
    Si3988   Si       0.66584    0.67881    0.16869    1.000
    N3989    N        0.64982    0.71446    0.24722    1.000
    Si3990   Si       0.66422    0.54521    0.28921    1.000
    N3991    N        0.64995    0.61402    0.35042    1.000
    Si3992   Si       0.69077    0.59632    0.34574    1.000
    N3993    N        0.66972    0.57438    0.25597    1.000
    N3994    N        0.68056    0.63141    0.29545    1.000
    Si3995   Si       0.68616    0.67498    0.30366    1.000
    N3996    N        0.64319    0.67774    0.30915    1.000
    Si3997   Si       0.63952    0.63377    0.31245    1.000
    Si3998   Si       0.63911    0.60644    0.45910    1.000
    N3999    N        0.63943    0.54174    0.37715    1.000
    Si4000   Si       0.64497    0.52917    0.46348    1.000
    N4001    N        0.68056    0.54821    0.44370    1.000
    N4002    N        0.68370    0.61090    0.46252    1.000
    Si4003   Si       0.66619    0.56220    0.40573    1.000
    N4004    N        0.63856    0.59649    0.41537    1.000
    N4005    N        0.64057    0.72284    0.46509    1.000
    N4006    N        0.68644    0.67983    0.43258    1.000
    Si4007   Si       0.64409    0.68536    0.43554    1.000
    N4008    N        0.65400    0.75564    0.41328    1.000
    Si4009   Si       0.65981    0.59256    0.53103    1.000
    N4010    N        0.67721    0.62284    0.55934    1.000
    Si4011   Si       0.65441    0.62362    0.59564    1.000
    N4012    N        0.68550    0.52230    0.56570    1.000
    Si4013   Si       0.67147    0.51805    0.60647    1.000
    Si4014   Si       0.64672    0.51931    0.54222    1.000
    N4015    N        0.65848    0.51102    0.49967    1.000
    Si4016   Si       0.64029    0.65833    0.49908    1.000
    N4017    N        0.64518    0.74559    0.52964    1.000
    N4018    N        0.68379    0.66548    0.50179    1.000
    N4019    N        0.63732    0.73054    0.60572    1.000
    Si4020   Si       0.67779    0.73970    0.62049    1.000
    N4021    N        0.64754    0.65997    0.62078    1.000
    Si4022   Si       0.68308    0.56060    0.72041    1.000
    N4023    N        0.67289    0.51791    0.71378    1.000
    N4024    N        0.67926    0.60393    0.62781    1.000
    N4025    N        0.64440    0.63048    0.68812    1.000
    N4026    N        0.65308    0.57703    0.74415    1.000
    Si4027   Si       0.66998    0.63835    0.65191    1.000
    Si4028   Si       0.68836    0.75237    0.68429    1.000
    N4029    N        0.66372    0.75545    0.71970    1.000
    Si4030   Si       0.65383    0.72047    0.74400    1.000
    Si4031   Si       0.66993    0.66093    0.70532    1.000
    N4032    N        0.64191    0.69183    0.71113    1.000
    N4033    N        0.68576    0.64711    0.74225    1.000
    Si4034   Si       0.66263    0.61593    0.76512    1.000
    N4035    N        0.68281    0.61628    0.80386    1.000
    N4036    N        0.67864    0.54926    0.86236    1.000
    Si4037   Si       0.66578    0.63253    0.84091    1.000
    N4038    N        0.64079    0.60466    0.86160    1.000
    N4039    N        0.65622    0.67441    0.83679    1.000
    N4040    N        0.67034    0.73975    0.82882    1.000
    Si4041   Si       0.65284    0.75757    0.86524    1.000
    N4042    N        0.69259    0.71473    0.76490    1.000
    Si4043   Si       0.68996    0.58003    0.96444    1.000
    Si4044   Si       0.65641    0.57494    0.89014    1.000
    N4045    N        0.68823    0.58673    0.91811    1.000
    N4046    N        0.64856    0.57430    0.97335    1.000
    Si4047   Si       0.67317    0.70030    0.92785    1.000
    N4048    N        0.69266    0.73126    0.95479    1.000
    N4049    N        0.65012    0.75588    0.90842    1.000
    N4050    N        0.68941    0.70860    0.89064    1.000
    Si4051   Si       0.67577    0.64856    0.98058    1.000
    N4052    N        0.68257    0.65829    0.93859    1.000
    Si4053   Si       0.68720    0.78688    0.08092    1.000
    N4054    N        0.65830    0.78183    0.04964    1.000
    N4055    N        0.65830    0.76782    0.10963    1.000
    Si4056   Si       0.68068    0.85513    0.11429    1.000
    N4057    N        0.66580    0.87622    0.01367    1.000
    N4058    N        0.67369    0.89556    0.10424    1.000
    N4059    N        0.64479    0.95129    0.06759    1.000
    Si4060   Si       0.63965    0.92287    0.09953    1.000
    Si4061   Si       0.68974    0.96410    0.06666    1.000
    N4062    N        0.64538    0.83615    0.13301    1.000
    N4063    N        0.66611    0.81376    0.22742    1.000
    N4064    N        0.67437    0.77521    0.17012    1.000
    Si4065   Si       0.64210    0.79394    0.14259    1.000
    Si4066   Si       0.69520    0.78417    0.20840    1.000
    N4067    N        0.64663    0.95536    0.20314    1.000
    Si4068   Si       0.64847    0.92718    0.16907    1.000
    Si4069   Si       0.67188    0.98212    0.13373    1.000
    Si4070   Si       0.68616    0.97595    0.20617    1.000
    N4071    N        0.69097    0.92290    0.16668    1.000
    N4072    N        0.63629    0.95359    0.13340    1.000
    Si4073   Si       0.66564    0.84031    0.30116    1.000
    N4074    N        0.66768    0.87069    0.33251    1.000
    N4075    N        0.68363    0.76632    0.35653    1.000
    N4076    N        0.64280    0.80655    0.31634    1.000
    Si4077   Si       0.64257    0.78632    0.35323    1.000
    Si4078   Si       0.67520    0.95232    0.30483    1.000
    N4079    N        0.65627    0.93889    0.34162    1.000
    N4080    N        0.67925    0.99463    0.30660    1.000
    N4081    N        0.64730    0.95672    0.27008    1.000
    Si4082   Si       0.66035    0.00155    0.26863    1.000
    N4083    N        0.66873    0.99634    0.37469    1.000
    N4084    N        0.64824    0.84485    0.44171    1.000
    N4085    N        0.68195    0.78039    0.47707    1.000
    N4086    N        0.68721    0.86129    0.39803    1.000
    Si4087   Si       0.68819    0.86339    0.44255    1.000
    Si4088   Si       0.64264    0.85235    0.39947    1.000
    Si4089   Si       0.64822    0.76383    0.45456    1.000
    Si4090   Si       0.69264    0.76580    0.40022    1.000
    N4091    N        0.66362    0.98330    0.44217    1.000
    Si4092   Si       0.65328    0.91825    0.47680    1.000
    Si4093   Si       0.68797    0.98048    0.47735    1.000
    N4094    N        0.67887    0.87183    0.53456    1.000
    Si4095   Si       0.68415    0.76287    0.51740    1.000
    Si4096   Si       0.68569    0.90446    0.56317    1.000
    Si4097   Si       0.64559    0.95517    0.54177    1.000
    N4098    N        0.64170    0.91626    0.56405    1.000
    N4099    N        0.68507    0.96526    0.56083    1.000
    N4100    N        0.66406    0.95317    0.50146    1.000
    N4101    N        0.66481    0.77628    0.65235    1.000
    N4102    N        0.67003    0.82378    0.72620    1.000
    Si4103   Si       0.67467    0.81924    0.63910    1.000
    Si4104   Si       0.66800    0.85846    0.70163    1.000
    N4105    N        0.68646    0.85402    0.66155    1.000
    Si4106   Si       0.64192    0.79217    0.72930    1.000
    N4107    N        0.69300    0.88354    0.72461    1.000
    N4108    N        0.68778    0.99006    0.70329    1.000
    Si4109   Si       0.68664    0.89446    0.64317    1.000
    Si4110   Si       0.67486    0.96094    0.67216    1.000
    N4111    N        0.67352    0.98067    0.63340    1.000
    N4112    N        0.64154    0.90129    0.63674    1.000
    Si4113   Si       0.64756    0.83888    0.86249    1.000
    N4114    N        0.64264    0.85168    0.82044    1.000
    N4115    N        0.64090    0.79709    0.85122    1.000
    N4116    N        0.68126    0.90925    0.81451    1.000
    Si4117   Si       0.68819    0.89665    0.76912    1.000
    N4118    N        0.64203    0.89487    0.77058    1.000
    Si4119   Si       0.63905    0.89423    0.81618    1.000
    Si4120   Si       0.64191    0.94744    0.87119    1.000
    N4121    N        0.68410    0.94033    0.87262    1.000
    Si4122   Si       0.67071    0.76698    0.94473    1.000
    Si4123   Si       0.67776    0.83292    0.92398    1.000
    N4124    N        0.68550    0.84027    0.88266    1.000
    N4125    N        0.63713    0.81819    0.92730    1.000
    N4126    N        0.63656    0.77404    0.97450    1.000
    N4127    N        0.69218    0.98209    0.98534    1.000
    Si4128   Si       0.65469    0.97199    0.96441    1.000
    Si4129   Si       0.67072    0.89097    0.97237    1.000
    N4130    N        0.66342    0.98565    0.92391    1.000
    N4131    N        0.64577    0.93101    0.97742    1.000
    N4132    N        0.72313    0.10278    0.10677    1.000
    N4133    N        0.73682    0.02912    0.01283    1.000
    Si4134   Si       0.71825    0.08509    0.06732    1.000
    N4135    N        0.70934    0.11587    0.03795    1.000
    Si4136   Si       0.73518    0.01565    0.05368    1.000
    N4137    N        0.74735    0.05365    0.06959    1.000
    Si4138   Si       0.72484    0.19906    0.05599    1.000
    N4139    N        0.72955    0.24385    0.04658    1.000
    Si4140   Si       0.71430    0.14336    0.00445    1.000
    N4141    N        0.74963    0.19627    0.09466    1.000
    N4142    N        0.69855    0.17996    0.02213    1.000
    Si4143   Si       0.74304    0.08765    0.14309    1.000
    N4144    N        0.71630    0.05622    0.16019    1.000
    Si4145   Si       0.73430    0.01580    0.16745    1.000
    Si4146   Si       0.73290    0.01502    0.24159    1.000
    N4147    N        0.74891    0.12666    0.16369    1.000
    N4148    N        0.74426    0.12489    0.24565    1.000
    N4149    N        0.75577    0.00981    0.20568    1.000
    N4150    N        0.72518    0.19919    0.24383    1.000
    Si4151   Si       0.71672    0.15563    0.16495    1.000
    N4152    N        0.71391    0.24954    0.12816    1.000
    Si4153   Si       0.74481    0.21841    0.13152    1.000
    Si4154   Si       0.73702    0.21783    0.20619    1.000
    Si4155   Si       0.71508    0.15736    0.24008    1.000
    N4156    N        0.71767    0.25625    0.21051    1.000
    N4157    N        0.73287    0.19729    0.16860    1.000
    N4158    N        0.69610    0.14631    0.20165    1.000
    Si4159   Si       0.72644    0.07702    0.33347    1.000
    Si4160   Si       0.72299    0.09020    0.25838    1.000
    N4161    N        0.71174    0.10352    0.30240    1.000
    N4162    N        0.74315    0.05250    0.25954    1.000
    N4163    N        0.71374    0.25510    0.30764    1.000
    N4164    N        0.73808    0.19138    0.31029    1.000
    Si4165   Si       0.72529    0.22185    0.28190    1.000
    Si4166   Si       0.70393    0.18717    0.33900    1.000
    N4167    N        0.70313    0.22533    0.36316    1.000
    N4168    N        0.73194    0.09465    0.37379    1.000
    N4169    N        0.70321    0.02180    0.47973    1.000
    Si4170   Si       0.70308    0.08378    0.40877    1.000
    Si4171   Si       0.73203    0.03500    0.44941    1.000
    N4172    N        0.73508    0.07895    0.44017    1.000
    Si4173   Si       0.72027    0.10494    0.48045    1.000
    Si4174   Si       0.71922    0.18636    0.46775    1.000
    N4175    N        0.71831    0.16284    0.37207    1.000
    N4176    N        0.70493    0.19713    0.42764    1.000
    Si4177   Si       0.75181    0.13322    0.37378    1.000
    Si4178   Si       0.72672    0.22257    0.39933    1.000
    N4179    N        0.70411    0.14698    0.48441    1.000
    N4180    N        0.72418    0.07793    0.51599    1.000
    N4181    N        0.73534    0.07844    0.58636    1.000
    Si4182   Si       0.70265    0.09364    0.61366    1.000
    N4183    N        0.70519    0.01996    0.59362    1.000
    Si4184   Si       0.73588    0.04304    0.61493    1.000
    N4185    N        0.71073    0.13464    0.61824    1.000
    N4186    N        0.70818    0.20092    0.57758    1.000
    N4187    N        0.74800    0.16901    0.53370    1.000
    Si4188   Si       0.70312    0.16512    0.52390    1.000
    Si4189   Si       0.75013    0.19756    0.56607    1.000
    N4190    N        0.71240    0.06601    0.64553    1.000
    Si4191   Si       0.73776    0.06391    0.68467    1.000
    N4192    N        0.70431    0.08124    0.70739    1.000
    N4193    N        0.75027    0.02414    0.69476    1.000
    N4194    N        0.71910    0.24470    0.68292    1.000
    N4195    N        0.73663    0.18170    0.72354    1.000
    Si4196   Si       0.70189    0.19123    0.69827    1.000
    N4197    N        0.70798    0.18891    0.65532    1.000
    Si4198   Si       0.72036    0.22882    0.64156    1.000
    N4199    N        0.73736    0.06416    0.78056    1.000
    Si4200   Si       0.71567    0.10031    0.79645    1.000
    N4201    N        0.73209    0.12185    0.83056    1.000
    Si4202   Si       0.71348    0.02830    0.77904    1.000
    N4203    N        0.71300    0.12660    0.76122    1.000
    Si4204   Si       0.70175    0.03742    0.85893    1.000
    N4205    N        0.73425    0.06648    0.86001    1.000
    Si4206   Si       0.72277    0.10971    0.87338    1.000
    Si4207   Si       0.72066    0.21457    0.82217    1.000
    Si4208   Si       0.73190    0.16582    0.76414    1.000
    N4209    N        0.70625    0.18979    0.78771    1.000
    N4210    N        0.73802    0.25252    0.81021    1.000
    N4211    N        0.74705    0.19090    0.84966    1.000
    N4212    N        0.71630    0.03813    0.94848    1.000
    N4213    N        0.71350    0.09384    0.91677    1.000
    Si4214   Si       0.74301    0.06666    0.93302    1.000
    Si4215   Si       0.70141    0.02498    0.98757    1.000
    Si4216   Si       0.72401    0.13112    0.94035    1.000
    N4217    N        0.69401    0.12118    0.97439    1.000
    N4218    N        0.74485    0.14288    0.89649    1.000
    Si4219   Si       0.72331    0.19854    0.94976    1.000
    N4220    N        0.69743    0.16623    0.92951    1.000
    N4221    N        0.74047    0.21603    0.91402    1.000
    N4222    N        0.74070    0.16401    0.97103    1.000
    N4223    N        0.70648    0.23097    0.97416    1.000
    N4224    N        0.73333    0.33620    0.04692    1.000
    Si4225   Si       0.73454    0.32452    0.08842    1.000
    N4226    N        0.69730    0.31462    0.10954    1.000
    N4227    N        0.70194    0.29466    0.00608    1.000
    N4228    N        0.75495    0.35541    0.11051    1.000
    N4229    N        0.72385    0.44525    0.05181    1.000
    N4230    N        0.71557    0.40893    0.10600    1.000
    Si4231   Si       0.71234    0.48153    0.03106    1.000
    N4232    N        0.74671    0.50874    0.04561    1.000
    N4233    N        0.75046    0.48949    0.11593    1.000
    N4234    N        0.72828    0.37365    0.17118    1.000
    Si4235   Si       0.70885    0.28874    0.14352    1.000
    N4236    N        0.71567    0.32552    0.21574    1.000
    Si4237   Si       0.74167    0.29345    0.20540    1.000
    Si4238   Si       0.72742    0.36541    0.21578    1.000
    N4239    N        0.74836    0.30519    0.16116    1.000
    Si4240   Si       0.75680    0.34830    0.15315    1.000
    N4241    N        0.72939    0.47441    0.23041    1.000
    N4242    N        0.71546    0.40520    0.22921    1.000
    Si4243   Si       0.73524    0.48484    0.15542    1.000
    Si4244   Si       0.73511    0.43843    0.20780    1.000
    Si4245   Si       0.70921    0.40753    0.15074    1.000
    N4246    N        0.71809    0.44760    0.16812    1.000
    Si4247   Si       0.70595    0.34758    0.35760    1.000
    N4248    N        0.71254    0.30288    0.36025    1.000
    N4249    N        0.69872    0.36775    0.31929    1.000
    N4250    N        0.70225    0.43608    0.29306    1.000
    Si4251   Si       0.71597    0.40702    0.32165    1.000
    Si4252   Si       0.71287    0.47098    0.36754    1.000
    N4253    N        0.70784    0.49569    0.33239    1.000
    N4254    N        0.70225    0.42907    0.35948    1.000
    N4255    N        0.74169    0.36544    0.37807    1.000
    N4256    N        0.73548    0.32923    0.44311    1.000
    Si4257   Si       0.71298    0.29191    0.44255    1.000
    Si4258   Si       0.73923    0.36876    0.42228    1.000
    N4259    N        0.70629    0.27649    0.48375    1.000
    N4260    N        0.73096    0.26371    0.41392    1.000
    Si4261   Si       0.75024    0.28958    0.38304    1.000
    Si4262   Si       0.74123    0.49099    0.41710    1.000
    N4263    N        0.73343    0.41091    0.49379    1.000
    Si4264   Si       0.72271    0.43456    0.45986    1.000
    N4265    N        0.71907    0.40614    0.42606    1.000
    N4266    N        0.69846    0.48430    0.40658    1.000
    N4267    N        0.74797    0.46880    0.45205    1.000
    N4268    N        0.73013    0.30902    0.54984    1.000
    Si4269   Si       0.74183    0.35041    0.55206    1.000
    N4270    N        0.70668    0.37446    0.54339    1.000
    Si4271   Si       0.70025    0.29389    0.52301    1.000
    N4272    N        0.75332    0.36444    0.59192    1.000
    N4273    N        0.70907    0.41962    0.59512    1.000
    N4274    N        0.72835    0.50645    0.50845    1.000
    Si4275   Si       0.70064    0.41020    0.52223    1.000
    Si4276   Si       0.75269    0.40855    0.59129    1.000
    Si4277   Si       0.71914    0.34173    0.67042    1.000
    N4278    N        0.72197    0.30850    0.69794    1.000
    Si4279   Si       0.70304    0.36994    0.73765    1.000
    Si4280   Si       0.75425    0.31335    0.72708    1.000
    N4281    N        0.72913    0.47209    0.63613    1.000
    Si4282   Si       0.70584    0.49661    0.66505    1.000
    N4283    N        0.73180    0.50311    0.69794    1.000
    Si4284   Si       0.69458    0.44612    0.62925    1.000
    N4285    N        0.73030    0.31884    0.82542    1.000
    N4286    N        0.73778    0.34685    0.75102    1.000
    Si4287   Si       0.75396    0.33475    0.79307    1.000
    N4288    N        0.71975    0.47630    0.76226    1.000
    N4289    N        0.71308    0.44113    0.82228    1.000
    Si4290   Si       0.74143    0.47200    0.83434    1.000
    Si4291   Si       0.70606    0.40748    0.85143    1.000
    N4292    N        0.72098    0.40613    0.75797    1.000
    Si4293   Si       0.70288    0.43820    0.77941    1.000
    N4294    N        0.74503    0.39468    0.87268    1.000
    Si4295   Si       0.73508    0.36220    0.90058    1.000
    N4296    N        0.74058    0.27738    0.88169    1.000
    Si4297   Si       0.71257    0.27535    0.96877    1.000
    N4298    N        0.70262    0.33591    0.88288    1.000
    Si4299   Si       0.72614    0.37726    0.97615    1.000
    Si4300   Si       0.70204    0.29547    0.89751    1.000
    N4301    N        0.71962    0.38092    0.93470    1.000
    N4302    N        0.72403    0.48991    0.98898    1.000
    Si4303   Si       0.73703    0.45680    0.96683    1.000
    N4304    N        0.73801    0.41833    0.99098    1.000
    N4305    N        0.70186    0.45036    0.94171    1.000
    Si4306   Si       0.72060    0.60275    0.02797    1.000
    Si4307   Si       0.74023    0.51941    0.08774    1.000
    N4308    N        0.74938    0.56735    0.01819    1.000
    N4309    N        0.71130    0.63049    0.11148    1.000
    N4310    N        0.74521    0.63296    0.04913    1.000
    Si4311   Si       0.73069    0.53142    0.99919    1.000
    Si4312   Si       0.74284    0.76126    0.04728    1.000
    Si4313   Si       0.73163    0.65706    0.08191    1.000
    N4314    N        0.71317    0.73931    0.02392    1.000
    N4315    N        0.70014    0.68484    0.07243    1.000
    Si4316   Si       0.71660    0.62420    0.15644    1.000
    N4317    N        0.73014    0.58947    0.18072    1.000
    Si4318   Si       0.72525    0.57007    0.21925    1.000
    N4319    N        0.70802    0.53196    0.21711    1.000
    Si4320   Si       0.75281    0.51263    0.22459    1.000
    N4321    N        0.72550    0.73498    0.14822    1.000
    N4322    N        0.74109    0.65807    0.16465    1.000
    N4323    N        0.71425    0.75071    0.22678    1.000
    Si4324   Si       0.73162    0.69930    0.17501    1.000
    Si4325   Si       0.72753    0.53154    0.31925    1.000
    N4326    N        0.72624    0.62212    0.34339    1.000
    N4327    N        0.74906    0.53232    0.28047    1.000
    N4328    N        0.73303    0.59944    0.25083    1.000
    Si4329   Si       0.70024    0.59627    0.27882    1.000
    N4330    N        0.69691    0.56549    0.31307    1.000
    Si4331   Si       0.71165    0.73345    0.35162    1.000
    Si4332   Si       0.73477    0.66327    0.35057    1.000
    N4333    N        0.70987    0.69698    0.27310    1.000
    N4334    N        0.74267    0.74466    0.32020    1.000
    Si4335   Si       0.74609    0.70876    0.29557    1.000
    N4336    N        0.70381    0.69204    0.33967    1.000
    N4337    N        0.74839    0.57494    0.46806    1.000
    Si4338   Si       0.74160    0.56196    0.38513    1.000
    Si4339   Si       0.70430    0.57054    0.47224    1.000
    N4340    N        0.75255    0.53323    0.41732    1.000
    N4341    N        0.70061    0.57264    0.38102    1.000
    N4342    N        0.74567    0.66987    0.39242    1.000
    N4343    N        0.72048    0.73355    0.39477    1.000
    Si4344   Si       0.72621    0.69844    0.41717    1.000
    Si4345   Si       0.70079    0.65093    0.46208    1.000
    N4346    N        0.74313    0.64087    0.45270    1.000
    N4347    N        0.74716    0.70568    0.45341    1.000
    Si4348   Si       0.74212    0.73290    0.48582    1.000
    Si4349   Si       0.71413    0.53625    0.53690    1.000
    N4350    N        0.73549    0.62532    0.52000    1.000
    N4351    N        0.74909    0.55289    0.55683    1.000
    N4352    N        0.69505    0.56895    0.51511    1.000
    Si4353   Si       0.72966    0.72096    0.55870    1.000
    N4354    N        0.72770    0.67623    0.56299    1.000
    N4355    N        0.71556    0.73416    0.51959    1.000
    N4356    N        0.70768    0.74854    0.58729    1.000
    Si4357   Si       0.70395    0.65060    0.53786    1.000
    N4358    N        0.71080    0.57711    0.69206    1.000
    Si4359   Si       0.70418    0.57431    0.64837    1.000
    N4360    N        0.74474    0.58582    0.64077    1.000
    N4361    N        0.69372    0.53287    0.64127    1.000
    Si4362   Si       0.70782    0.50619    0.73446    1.000
    N4363    N        0.69963    0.72063    0.65289    1.000
    N4364    N        0.74982    0.67537    0.73772    1.000
    N4365    N        0.70215    0.65955    0.67486    1.000
    Si4366   Si       0.72968    0.69059    0.65830    1.000
    Si4367   Si       0.71955    0.55209    0.84613    1.000
    N4368    N        0.74164    0.57314    0.81423    1.000
    Si4369   Si       0.72768    0.62172    0.80517    1.000
    N4370    N        0.74751    0.60989    0.76491    1.000
    Si4371   Si       0.74644    0.56687    0.77012    1.000
    N4372    N        0.71141    0.54696    0.75303    1.000
    N4373    N        0.72058    0.50872    0.83847    1.000
    Si4374   Si       0.71377    0.67603    0.76139    1.000
    N4375    N        0.72462    0.66864    0.80285    1.000
    N4376    N        0.73928    0.69531    0.85810    1.000
    N4377    N        0.73962    0.75098    0.81520    1.000
    Si4378   Si       0.69832    0.74751    0.79366    1.000
    N4379    N        0.69858    0.64027    0.86785    1.000
    Si4380   Si       0.69608    0.68477    0.85295    1.000
    N4381    N        0.72713    0.55731    0.95882    1.000
    N4382    N        0.74455    0.56280    0.88118    1.000
    Si4383   Si       0.71923    0.55449    0.91535    1.000
    N4384    N        0.69964    0.61533    0.99122    1.000
    Si4385   Si       0.70240    0.62911    0.90896    1.000
    N4386    N        0.72195    0.51107    0.91180    1.000
    N4387    N        0.74332    0.63622    0.92341    1.000
    Si4388   Si       0.71276    0.71306    0.98737    1.000
    Si4389   Si       0.73292    0.72462    0.88972    1.000
    N4390    N        0.73842    0.86992    0.04248    1.000
    Si4391   Si       0.73679    0.83404    0.06780    1.000
    N4392    N        0.72601    0.76481    0.08617    1.000
    N4393    N        0.69770    0.82758    0.08514    1.000
    N4394    N        0.71093    0.93493    0.04405    1.000
    Si4395   Si       0.70422    0.89603    0.02723    1.000
    N4396    N        0.75337    0.97808    0.06745    1.000
    Si4397   Si       0.75329    0.94790    0.03841    1.000
    Si4398   Si       0.75951    0.96300    0.11039    1.000
    N4399    N        0.69791    0.95870    0.10762    1.000
    N4400    N        0.69237    0.00564    0.05767    1.000
    Si4401   Si       0.74818    0.76271    0.12416    1.000
    Si4402   Si       0.73592    0.83667    0.16619    1.000
    N4403    N        0.72508    0.81678    0.20295    1.000
    N4404    N        0.71302    0.86359    0.14306    1.000
    Si4405   Si       0.70137    0.83934    0.23631    1.000
    N4406    N        0.70721    0.87994    0.22519    1.000
    N4407    N        0.75169    0.80323    0.14043    1.000
    Si4408   Si       0.70607    0.91521    0.12556    1.000
    N4409    N        0.74833    0.92205    0.12261    1.000
    Si4410   Si       0.71756    0.91364    0.19979    1.000
    N4411    N        0.71221    0.94845    0.22670    1.000
    N4412    N        0.69736    0.99166    0.16719    1.000
    Si4413   Si       0.73588    0.83800    0.30497    1.000
    N4414    N        0.72273    0.83097    0.34608    1.000
    Si4415   Si       0.70125    0.86714    0.35807    1.000
    N4416    N        0.70092    0.83726    0.27913    1.000
    N4417    N        0.75731    0.87514    0.30037    1.000
    Si4418   Si       0.73299    0.94571    0.26405    1.000
    N4419    N        0.71218    0.93121    0.29687    1.000
    N4420    N        0.73194    0.89938    0.36053    1.000
    Si4421   Si       0.74329    0.91160    0.32126    1.000
    N4422    N        0.74532    0.98635    0.27402    1.000
    N4423    N        0.73385    0.00275    0.34570    1.000
    N4424    N        0.71594    0.79937    0.41303    1.000
    Si4425   Si       0.74114    0.81657    0.38208    1.000
    N4426    N        0.71076    0.84068    0.47277    1.000
    Si4427   Si       0.71525    0.79997    0.45740    1.000
    N4428    N        0.74689    0.77359    0.47043    1.000
    Si4429   Si       0.75115    0.85583    0.48380    1.000
    Si4430   Si       0.73236    0.92067    0.46353    1.000
    N4431    N        0.68900    0.90298    0.45879    1.000
    N4432    N        0.72603    0.95717    0.48622    1.000
    Si4433   Si       0.75427    0.99821    0.38487    1.000
    N4434    N        0.72437    0.00661    0.41638    1.000
    Si4435   Si       0.71579    0.78997    0.57816    1.000
    N4436    N        0.74002    0.84996    0.52669    1.000
    Si4437   Si       0.69937    0.83813    0.51750    1.000
    N4438    N        0.71147    0.81119    0.61513    1.000
    N4439    N        0.69698    0.79834    0.54016    1.000
    N4440    N        0.72598    0.92031    0.54745    1.000
    Si4441   Si       0.72196    0.96017    0.53122    1.000
    Si4442   Si       0.74263    0.91265    0.60002    1.000
    N4443    N        0.73745    0.95591    0.61090    1.000
    N4444    N        0.70132    0.89763    0.60206    1.000
    Si4445   Si       0.70061    0.97775    0.60041    1.000
    N4446    N        0.74180    0.81918    0.73385    1.000
    Si4447   Si       0.74027    0.77411    0.73789    1.000
    N4448    N        0.73097    0.76073    0.69780    1.000
    Si4449   Si       0.74287    0.94351    0.65741    1.000
    Si4450   Si       0.72538    0.91185    0.71223    1.000
    N4451    N        0.70119    0.92580    0.66894    1.000
    N4452    N        0.74802    0.95042    0.70320    1.000
    Si4453   Si       0.72853    0.99314    0.71585    1.000
    Si4454   Si       0.73908    0.85766    0.80694    1.000
    N4455    N        0.73571    0.82387    0.83625    1.000
    N4456    N        0.70570    0.85669    0.78052    1.000
    N4457    N        0.70569    0.78262    0.76760    1.000
    Si4458   Si       0.72701    0.85216    0.87004    1.000
    Si4459   Si       0.74673    0.78293    0.84479    1.000
    Si4460   Si       0.70391    0.82332    0.75209    1.000
    N4461    N        0.73752    0.88637    0.84267    1.000
    N4462    N        0.73203    0.99496    0.75813    1.000
    N4463    N        0.73632    0.95737    0.81931    1.000
    Si4464   Si       0.74277    0.95745    0.77643    1.000
    Si4465   Si       0.71136    0.92581    0.84050    1.000
    N4466    N        0.71912    0.92658    0.75853    1.000
    Si4467   Si       0.75027    0.97917    0.85518    1.000
    N4468    N        0.70147    0.79706    0.93495    1.000
    Si4469   Si       0.73831    0.79840    0.91275    1.000
    Si4470   Si       0.73544    0.87552    0.96353    1.000
    N4471    N        0.72992    0.76753    0.88282    1.000
    N4472    N        0.75338    0.83786    0.90095    1.000
    N4473    N        0.69443    0.86475    0.94733    1.000
    N4474    N        0.72159    0.95039    0.93162    1.000
    Si4475   Si       0.72138    0.95099    0.97411    1.000
    N4476    N        0.71440    0.90777    0.98597    1.000
    Si4477   Si       0.69807    0.97159    0.90168    1.000
    N4478    N        0.71759    0.00166    0.87652    1.000
    Si4479   Si       0.78440    0.05992    0.08852    1.000
    N4480    N        0.79935    0.07861    0.01283    1.000
    Si4481   Si       0.77723    0.04068    0.00652    1.000
    N4482    N        0.80992    0.09234    0.08113    1.000
    N4483    N        0.80939    0.02237    0.09541    1.000
    N4484    N        0.79524    0.00823    0.03051    1.000
    N4485    N        0.79420    0.23559    0.05304    1.000
    Si4486   Si       0.78454    0.19569    0.06794    1.000
    N4487    N        0.76138    0.17774    0.03617    1.000
    Si4488   Si       0.80714    0.22791    0.01221    1.000
    Si4489   Si       0.79618    0.02321    0.13836    1.000
    N4490    N        0.77574    0.06293    0.13087    1.000
    Si4491   Si       0.79932    0.00681    0.21118    1.000
    N4492    N        0.80520    0.13769    0.21203    1.000
    Si4493   Si       0.78945    0.25020    0.24277    1.000
    Si4494   Si       0.80313    0.22440    0.17355    1.000
    N4495    N        0.78008    0.24436    0.14328    1.000
    Si4496   Si       0.78640    0.14481    0.17302    1.000
    N4497    N        0.80193    0.18494    0.16122    1.000
    N4498    N        0.77921    0.22694    0.20888    1.000
    Si4499   Si       0.79278    0.04592    0.34987    1.000
    Si4500   Si       0.78200    0.05373    0.27469    1.000
    N4501    N        0.79970    0.09070    0.26270    1.000
    N4502    N        0.76699    0.06550    0.31901    1.000
    Si4503   Si       0.78687    0.13089    0.24967    1.000
    N4504    N        0.81075    0.02754    0.24815    1.000
    N4505    N        0.79812    0.00887    0.32669    1.000
    N4506    N        0.78162    0.13927    0.34362    1.000
    N4507    N        0.79864    0.15994    0.27906    1.000
    Si4508   Si       0.77924    0.17525    0.31443    1.000
    N4509    N        0.80326    0.21053    0.32438    1.000
    Si4510   Si       0.79328    0.23215    0.36347    1.000
    N4511    N        0.76474    0.24385    0.27654    1.000
    N4512    N        0.76421    0.11635    0.48243    1.000
    N4513    N        0.77934    0.03329    0.39177    1.000
    Si4514   Si       0.77229    0.10362    0.44034    1.000
    N4515    N        0.77094    0.02155    0.46377    1.000
    Si4516   Si       0.79783    0.03721    0.43274    1.000
    N4517    N        0.80883    0.07841    0.43657    1.000
    Si4518   Si       0.80311    0.19713    0.47947    1.000
    Si4519   Si       0.77688    0.18069    0.42346    1.000
    N4520    N        0.76890    0.20940    0.39052    1.000
    N4521    N        0.76764    0.13864    0.41328    1.000
    N4522    N        0.76207    0.19130    0.46376    1.000
    N4523    N        0.78286    0.11128    0.54824    1.000
    N4524    N        0.78653    0.04734    0.54696    1.000
    N4525    N        0.80809    0.11696    0.61853    1.000
    Si4526   Si       0.75332    0.07647    0.54810    1.000
    Si4527   Si       0.79456    0.13759    0.58042    1.000
    Si4528   Si       0.77355    0.14148    0.51391    1.000
    N4529    N        0.77285    0.17221    0.59328    1.000
    N4530    N        0.76677    0.23649    0.56059    1.000
    Si4531   Si       0.80279    0.24816    0.53816    1.000
    N4532    N        0.81021    0.16309    0.50473    1.000
    Si4533   Si       0.78860    0.01068    0.67357    1.000
    N4534    N        0.76854    0.02172    0.63098    1.000
    N4535    N        0.79884    0.06575    0.73415    1.000
    N4536    N        0.77038    0.08962    0.67309    1.000
    Si4537   Si       0.79355    0.12370    0.65786    1.000
    Si4538   Si       0.80678    0.07368    0.69141    1.000
    Si4539   Si       0.75923    0.25282    0.69563    1.000
    Si4540   Si       0.77630    0.17829    0.70630    1.000
    N4541    N        0.78357    0.16511    0.66481    1.000
    N4542    N        0.76401    0.22727    0.63315    1.000
    N4543    N        0.80118    0.14999    0.72774    1.000
    Si4544   Si       0.78905    0.19168    0.62876    1.000
    N4545    N        0.78768    0.22042    0.70483    1.000
    Si4546   Si       0.77872    0.06765    0.77090    1.000
    N4547    N        0.79558    0.10395    0.79065    1.000
    N4548    N        0.80134    0.03158    0.78574    1.000
    Si4549   Si       0.77516    0.05076    0.86440    1.000
    N4550    N        0.81210    0.06966    0.85111    1.000
    N4551    N        0.78049    0.00944    0.84644    1.000
    N4552    N        0.79908    0.13906    0.84950    1.000
    N4553    N        0.79726    0.23061    0.77283    1.000
    N4554    N        0.76585    0.16228    0.78906    1.000
    Si4555   Si       0.79893    0.14257    0.77054    1.000
    Si4556   Si       0.76116    0.15328    0.83121    1.000
    N4557    N        0.76102    0.09877    0.95637    1.000
    N4558    N        0.77600    0.05273    0.90804    1.000
    N4559    N        0.78743    0.02590    0.96755    1.000
    Si4560   Si       0.79961    0.10062    0.97529    1.000
    Si4561   Si       0.81002    0.04416    0.93551    1.000
    Si4562   Si       0.75678    0.25526    0.91340    1.000
    N4563    N        0.80240    0.14138    0.98987    1.000
    N4564    N        0.80009    0.25084    0.91703    1.000
    N4565    N        0.79758    0.18382    0.90404    1.000
    N4566    N        0.78665    0.20832    0.97673    1.000
    Si4567   Si       0.80496    0.21277    0.93699    1.000
    Si4568   Si       0.77352    0.17334    0.99558    1.000
    Si4569   Si       0.75607    0.18317    0.89173    1.000
    N4570    N        0.77965    0.29416    0.02493    1.000
    Si4571   Si       0.76739    0.33505    0.02174    1.000
    Si4572   Si       0.76592    0.26701    0.05513    1.000
    N4573    N        0.76332    0.29065    0.09222    1.000
    N4574    N        0.80995    0.34936    0.02536    1.000
    Si4575   Si       0.78951    0.49117    0.04416    1.000
    N4576    N        0.77436    0.39851    0.05674    1.000
    N4577    N        0.78252    0.45939    0.01515    1.000
    Si4578   Si       0.78814    0.46609    0.11383    1.000
    N4579    N        0.80906    0.46887    0.07492    1.000
    Si4580   Si       0.75737    0.39628    0.09688    1.000
    Si4581   Si       0.75759    0.42651    0.02929    1.000
    N4582    N        0.77953    0.29230    0.22830    1.000
    Si4583   Si       0.77859    0.28554    0.13233    1.000
    N4584    N        0.79657    0.36222    0.16049    1.000
    N4585    N        0.76878    0.36166    0.23518    1.000
    N4586    N        0.77906    0.42371    0.12568    1.000
    N4587    N        0.79866    0.50601    0.24534    1.000
    N4588    N        0.77413    0.42078    0.20005    1.000
    Si4589   Si       0.79098    0.39900    0.23355    1.000
    Si4590   Si       0.79446    0.40635    0.16395    1.000
    N4591    N        0.76662    0.49514    0.18466    1.000
    N4592    N        0.77601    0.30828    0.29496    1.000
    Si4593   Si       0.78556    0.32448    0.25418    1.000
    N4594    N        0.80400    0.35383    0.34379    1.000
    N4595    N        0.76661    0.26516    0.35120    1.000
    Si4596   Si       0.81088    0.32601    0.31086    1.000
    Si4597   Si       0.75564    0.27239    0.30872    1.000
    Si4598   Si       0.77492    0.38403    0.35676    1.000
    N4599    N        0.79473    0.43481    0.25984    1.000
    Si4600   Si       0.79494    0.42131    0.30231    1.000
    N4601    N        0.78891    0.46197    0.31799    1.000
    Si4602   Si       0.79219    0.46297    0.36115    1.000
    Si4603   Si       0.80441    0.48486    0.28432    1.000
    N4604    N        0.75969    0.40120    0.32116    1.000
    N4605    N        0.80140    0.42099    0.37232    1.000
    N4606    N        0.79914    0.30778    0.47791    1.000
    Si4607   Si       0.77945    0.32652    0.44433    1.000
    N4608    N        0.78542    0.30197    0.40766    1.000
    N4609    N        0.78268    0.37135    0.43860    1.000
    Si4610   Si       0.81225    0.40291    0.44983    1.000
    N4611    N        0.80930    0.40841    0.49238    1.000
    Si4612   Si       0.76220    0.49090    0.48718    1.000
    N4613    N        0.75569    0.47266    0.38041    1.000
    N4614    N        0.77420    0.35656    0.52371    1.000
    N4615    N        0.79386    0.29026    0.54196    1.000
    Si4616   Si       0.80354    0.32652    0.51822    1.000
    N4617    N        0.76331    0.29503    0.60849    1.000
    Si4618   Si       0.75881    0.28151    0.56705    1.000
    Si4619   Si       0.77496    0.33742    0.61722    1.000
    Si4620   Si       0.77064    0.39875    0.51326    1.000
    N4621    N        0.78551    0.46965    0.51546    1.000
    N4622    N        0.77976    0.48935    0.58545    1.000
    Si4623   Si       0.79041    0.45836    0.55731    1.000
    N4624    N        0.76754    0.41896    0.55211    1.000
    Si4625   Si       0.78562    0.37339    0.69057    1.000
    N4626    N        0.78430    0.27946    0.67357    1.000
    N4627    N        0.78999    0.33495    0.71232    1.000
    Si4628   Si       0.78453    0.26533    0.63242    1.000
    N4629    N        0.75834    0.35266    0.65724    1.000
    N4630    N        0.76054    0.27164    0.73687    1.000
    N4631    N        0.78257    0.40360    0.72152    1.000
    N4632    N        0.78096    0.42874    0.61964    1.000
    Si4633   Si       0.80579    0.44016    0.72785    1.000
    Si4634   Si       0.77453    0.50761    0.69621    1.000
    N4635    N        0.79100    0.49291    0.65723    1.000
    N4636    N        0.78482    0.47700    0.72950    1.000
    Si4637   Si       0.76992    0.47171    0.62480    1.000
    N4638    N        0.78036    0.30108    0.79233    1.000
    N4639    N        0.77799    0.37180    0.79001    1.000
    N4640    N        0.79935    0.27177    0.84733    1.000
    N4641    N        0.81047    0.33869    0.84413    1.000
    Si4642   Si       0.76679    0.26130    0.77819    1.000
    Si4643   Si       0.81150    0.37515    0.81957    1.000
    Si4644   Si       0.75278    0.28328    0.83894    1.000
    Si4645   Si       0.76015    0.38720    0.75411    1.000
    N4646    N        0.77439    0.47041    0.80380    1.000
    N4647    N        0.79894    0.41344    0.83789    1.000
    Si4648   Si       0.76300    0.48882    0.76716    1.000
    Si4649   Si       0.81091    0.44487    0.80911    1.000
    Si4650   Si       0.80534    0.33613    0.88748    1.000
    N4651    N        0.76827    0.33607    0.91037    1.000
    Si4652   Si       0.77331    0.32055    0.95126    1.000
    N4653    N        0.75577    0.34709    0.98277    1.000
    N4654    N        0.75116    0.28207    0.94949    1.000
    Si4655   Si       0.81080    0.45030    0.94179    1.000
    Si4656   Si       0.77867    0.42308    0.87338    1.000
    N4657    N        0.80815    0.42478    0.90594    1.000
    N4658    N        0.76110    0.46380    0.87252    1.000
    N4659    N        0.77088    0.46962    0.94295    1.000
    Si4660   Si       0.76248    0.49197    0.90662    1.000
    Si4661   Si       0.78111    0.55910    0.04696    1.000
    N4662    N        0.76682    0.55277    0.08761    1.000
    N4663    N        0.80226    0.59680    0.04482    1.000
    N4664    N        0.80790    0.52765    0.03400    1.000
    Si4665   Si       0.78262    0.63104    0.02597    1.000
    Si4666   Si       0.79369    0.57133    0.11576    1.000
    N4667    N        0.76293    0.67810    0.10348    1.000
    N4668    N        0.77480    0.72881    0.04954    1.000
    Si4669   Si       0.78481    0.71230    0.08993    1.000
    N4670    N        0.80420    0.66906    0.03165    1.000
    Si4671   Si       0.78548    0.70560    0.01552    1.000
    N4672    N        0.78678    0.74953    0.11152    1.000
    N4673    N        0.77964    0.60789    0.13564    1.000
    Si4674   Si       0.77520    0.58349    0.17919    1.000
    N4675    N        0.78689    0.61673    0.20688    1.000
    N4676    N        0.79427    0.54796    0.15456    1.000
    N4677    N        0.76900    0.55404    0.21885    1.000
    Si4678   Si       0.80695    0.51017    0.17262    1.000
    N4679    N        0.76390    0.70636    0.20652    1.000
    Si4680   Si       0.75715    0.74316    0.23019    1.000
    Si4681   Si       0.78736    0.68728    0.23805    1.000
    Si4682   Si       0.77467    0.65284    0.13912    1.000
    N4683    N        0.81251    0.66167    0.15839    1.000
    Si4684   Si       0.78892    0.54480    0.26758    1.000
    Si4685   Si       0.79969    0.53475    0.34766    1.000
    N4686    N        0.80016    0.58582    0.27394    1.000
    Si4687   Si       0.77567    0.61347    0.24888    1.000
    N4688    N        0.81235    0.52611    0.30289    1.000
    N4689    N        0.75709    0.54303    0.34993    1.000
    N4690    N        0.77972    0.65312    0.26398    1.000
    N4691    N        0.77574    0.72110    0.26609    1.000
    Si4692   Si       0.79913    0.66066    0.30495    1.000
    N4693    N        0.76431    0.67875    0.32266    1.000
    Si4694   Si       0.81460    0.73452    0.28193    1.000
    Si4695   Si       0.76216    0.61548    0.48606    1.000
    Si4696   Si       0.80867    0.59300    0.39912    1.000
    Si4697   Si       0.77834    0.55074    0.44867    1.000
    N4698    N        0.76334    0.59830    0.39598    1.000
    N4699    N        0.79344    0.51258    0.46562    1.000
    N4700    N        0.81379    0.57338    0.43617    1.000
    N4701    N        0.80804    0.63411    0.41300    1.000
    Si4702   Si       0.76521    0.63593    0.41375    1.000
    Si4703   Si       0.78427    0.68801    0.46995    1.000
    N4704    N        0.79333    0.65169    0.49319    1.000
    Si4705   Si       0.78314    0.53168    0.57341    1.000
    N4706    N        0.78696    0.59286    0.51548    1.000
    N4707    N        0.79550    0.55076    0.61053    1.000
    Si4708   Si       0.78011    0.59051    0.61620    1.000
    N4709    N        0.76314    0.61334    0.58395    1.000
    Si4710   Si       0.75637    0.59465    0.54535    1.000
    Si4711   Si       0.76152    0.65827    0.58378    1.000
    Si4712   Si       0.79842    0.74683    0.53146    1.000
    N4713    N        0.76861    0.73985    0.56386    1.000
    N4714    N        0.79827    0.66544    0.55810    1.000
    N4715    N        0.78448    0.72167    0.49932    1.000
    Si4716   Si       0.79106    0.75524    0.59958    1.000
    N4717    N        0.81127    0.71879    0.61516    1.000
    N4718    N        0.77242    0.62050    0.69843    1.000
    N4719    N        0.78415    0.55102    0.69612    1.000
    Si4720   Si       0.80898    0.62712    0.67552    1.000
    Si4721   Si       0.75454    0.58181    0.68584    1.000
    Si4722   Si       0.76637    0.75709    0.67294    1.000
    Si4723   Si       0.79467    0.69145    0.64599    1.000
    N4724    N        0.76674    0.71025    0.67704    1.000
    Si4725   Si       0.77051    0.63567    0.73877    1.000
    N4726    N        0.75981    0.67277    0.62773    1.000
    Si4727   Si       0.77587    0.70782    0.72137    1.000
    N4728    N        0.77077    0.53119    0.76721    1.000
    Si4729   Si       0.78177    0.59108    0.82519    1.000
    N4730    N        0.80530    0.58451    0.79014    1.000
    N4731    N        0.80877    0.57329    0.85438    1.000
    N4732    N        0.76448    0.63081    0.82862    1.000
    N4733    N        0.79236    0.70194    0.81059    1.000
    Si4734   Si       0.77597    0.73991    0.79374    1.000
    Si4735   Si       0.75925    0.67568    0.82714    1.000
    N4736    N        0.80970    0.64884    0.75712    1.000
    N4737    N        0.76346    0.73934    0.75018    1.000
    Si4738   Si       0.76781    0.57741    0.97891    1.000
    Si4739   Si       0.78614    0.56612    0.89070    1.000
    N4740    N        0.79338    0.52351    0.90153    1.000
    N4741    N        0.79314    0.59583    0.92220    1.000
    N4742    N        0.77434    0.61887    0.98426    1.000
    N4743    N        0.80669    0.55814    0.97400    1.000
    Si4744   Si       0.77970    0.63134    0.94170    1.000
    N4745    N        0.76562    0.72243    0.91685    1.000
    Si4746   Si       0.79069    0.75570    0.90040    1.000
    Si4747   Si       0.78448    0.70497    0.95285    1.000
    N4748    N        0.80930    0.72591    0.98458    1.000
    N4749    N        0.80582    0.66647    0.94661    1.000
    N4750    N        0.75379    0.69852    0.98450    1.000
    N4751    N        0.77037    0.84831    0.09195    1.000
    Si4752   Si       0.77917    0.82425    0.01236    1.000
    Si4753   Si       0.78293    0.87721    0.06039    1.000
    N4754    N        0.80734    0.85131    0.03095    1.000
    N4755    N        0.75538    0.80201    0.04062    1.000
    N4756    N        0.78332    0.91997    0.05235    1.000
    N4757    N        0.80321    0.95955    0.10064    1.000
    Si4758   Si       0.80832    0.98734    0.06760    1.000
    N4759    N        0.75791    0.95953    0.99568    1.000
    Si4760   Si       0.80225    0.85852    0.20277    1.000
    N4761    N        0.78754    0.77567    0.22726    1.000
    N4762    N        0.77800    0.85508    0.16244    1.000
    N4763    N        0.77885    0.84924    0.23849    1.000
    Si4764   Si       0.78617    0.83047    0.12735    1.000
    N4765    N        0.81333    0.96534    0.21431    1.000
    N4766    N        0.81299    0.90878    0.14111    1.000
    Si4767   Si       0.79126    0.92897    0.21708    1.000
    N4768    N        0.76018    0.91545    0.18813    1.000
    Si4769   Si       0.77329    0.89892    0.14915    1.000
    N4770    N        0.76076    0.99692    0.14002    1.000
    Si4771   Si       0.77048    0.77595    0.32263    1.000
    Si4772   Si       0.78972    0.80982    0.25383    1.000
    N4773    N        0.76423    0.80700    0.29065    1.000
    N4774    N        0.77216    0.79133    0.36186    1.000
    N4775    N        0.81315    0.76664    0.30998    1.000
    Si4776   Si       0.78316    0.88359    0.26804    1.000
    N4777    N        0.77073    0.94655    0.32701    1.000
    Si4778   Si       0.79709    0.94061    0.36031    1.000
    N4779    N        0.79966    0.89808    0.36364    1.000
    N4780    N        0.76928    0.92297    0.25512    1.000
    Si4781   Si       0.76213    0.98701    0.31459    1.000
    Si4782   Si       0.78674    0.78869    0.47229    1.000
    Si4783   Si       0.79531    0.85157    0.43226    1.000
    N4784    N        0.77685    0.82873    0.46398    1.000
    N4785    N        0.77015    0.84599    0.39593    1.000
    Si4786   Si       0.80780    0.81469    0.37447    1.000
    Si4787   Si       0.81128    0.96804    0.42701    1.000
    N4788    N        0.74959    0.89915    0.42835    1.000
    Si4789   Si       0.77150    0.98659    0.49032    1.000
    Si4790   Si       0.79905    0.91642    0.47771    1.000
    Si4791   Si       0.76247    0.88749    0.38886    1.000
    N4792    N        0.78641    0.95535    0.46215    1.000
    N4793    N        0.76195    0.89879    0.49259    1.000
    N4794    N        0.78197    0.96591    0.39232    1.000
    N4795    N        0.79516    0.78903    0.51711    1.000
    Si4796   Si       0.77150    0.82150    0.54043    1.000
    N4797    N        0.80348    0.84953    0.53962    1.000
    N4798    N        0.75799    0.80839    0.57748    1.000
    Si4799   Si       0.81365    0.87411    0.57474    1.000
    N4800    N        0.77428    0.89411    0.57534    1.000
    N4801    N        0.80509    0.98594    0.58616    1.000
    Si4802   Si       0.77353    0.98259    0.61612    1.000
    Si4803   Si       0.79109    0.00319    0.54958    1.000
    N4804    N        0.81131    0.98744    0.51268    1.000
    Si4805   Si       0.75557    0.89044    0.53650    1.000
    N4806    N        0.75426    0.98628    0.53485    1.000
    N4807    N        0.75924    0.88190    0.70807    1.000
    Si4808   Si       0.76961    0.85294    0.73794    1.000
    N4809    N        0.76519    0.76896    0.63065    1.000
    N4810    N        0.77522    0.83166    0.65780    1.000
    Si4811   Si       0.77619    0.87461    0.66839    1.000
    N4812    N        0.80599    0.77285    0.68634    1.000
    N4813    N        0.80722    0.83726    0.71934    1.000
    Si4814   Si       0.80838    0.81437    0.68300    1.000
    Si4815   Si       0.75700    0.81167    0.62204    1.000
    N4816    N        0.80281    0.99599    0.71825    1.000
    Si4817   Si       0.78950    0.95364    0.72140    1.000
    N4818    N        0.75477    0.90208    0.64156    1.000
    N4819    N        0.78679    0.96656    0.65333    1.000
    N4820    N        0.77326    0.85232    0.78151    1.000
    N4821    N        0.78752    0.77268    0.85940    1.000
    N4822    N        0.80402    0.77158    0.79714    1.000
    Si4823   Si       0.81044    0.86259    0.80143    1.000
    N4824    N        0.78269    0.94538    0.76301    1.000
    Si4825   Si       0.77653    0.90690    0.85212    1.000
    N4826    N        0.79974    0.90259    0.81524    1.000
    Si4827   Si       0.78402    0.86710    0.91501    1.000
    N4828    N        0.77452    0.78466    0.93088    1.000
    Si4829   Si       0.78942    0.81722    0.95452    1.000
    N4830    N        0.80663    0.79761    0.98902    1.000
    N4831    N        0.76171    0.84173    0.97612    1.000
    N4832    N        0.81531    0.84498    0.93470    1.000
    Si4833   Si       0.76085    0.93734    0.91956    1.000
    N4834    N        0.80153    0.89252    0.88477    1.000
    N4835    N        0.78926    0.96782    0.93204    1.000
    Si4836   Si       0.78738    0.98165    0.97540    1.000
    N4837    N        0.75935    0.94151    0.87627    1.000
    N4838    N        0.76013    0.89780    0.93694    1.000
    Si4839   Si       0.83029    0.08474    0.04241    1.000
    N4840    N        0.85427    0.12102    0.03440    1.000
    N4841    N        0.85787    0.05165    0.05253    1.000
    Si4842   Si       0.85210    0.03428    0.09542    1.000
    N4843    N        0.86849    0.12626    0.10795    1.000
    Si4844   Si       0.83515    0.10161    0.11720    1.000
    N4845    N        0.83290    0.19417    0.02315    1.000
    Si4846   Si       0.83905    0.15349    0.00892    1.000
    Si4847   Si       0.85280    0.20218    0.06121    1.000
    N4848    N        0.82039    0.18275    0.08795    1.000
    N4849    N        0.86765    0.24386    0.05644    1.000
    N4850    N        0.85140    0.06352    0.12827    1.000
    N4851    N        0.84665    0.08201    0.20374    1.000
    Si4852   Si       0.84840    0.12710    0.20492    1.000
    Si4853   Si       0.85520    0.05209    0.17138    1.000
    N4854    N        0.81828    0.02586    0.17454    1.000
    N4855    N        0.81575    0.12894    0.14536    1.000
    N4856    N        0.86766    0.24594    0.12180    1.000
    N4857    N        0.86667    0.18300    0.14412    1.000
    Si4858   Si       0.82857    0.16886    0.12895    1.000
    N4859    N        0.83896    0.24546    0.18555    1.000
    Si4860   Si       0.85673    0.23959    0.22467    1.000
    N4861    N        0.85720    0.01819    0.35512    1.000
    Si4862   Si       0.86198    0.05843    0.36539    1.000
    Si4863   Si       0.85398    0.01827    0.25579    1.000
    Si4864   Si       0.82016    0.12224    0.35544    1.000
    N4865    N        0.82271    0.07607    0.35780    1.000
    N4866    N        0.85996    0.12471    0.24900    1.000
    N4867    N        0.86658    0.05683    0.27127    1.000
    Si4868   Si       0.84080    0.08375    0.24928    1.000
    N4869    N        0.84546    0.13031    0.32080    1.000
    Si4870   Si       0.84218    0.14986    0.28390    1.000
    N4871    N        0.83001    0.24282    0.25955    1.000
    Si4872   Si       0.83839    0.22204    0.29886    1.000
    N4873    N        0.86077    0.18784    0.28840    1.000
    N4874    N        0.86473    0.24508    0.32432    1.000
    Si4875   Si       0.86358    0.23124    0.36704    1.000
    Si4876   Si       0.86862    0.02477    0.43277    1.000
    Si4877   Si       0.84699    0.09466    0.42455    1.000
    N4878    N        0.86701    0.06074    0.40836    1.000
    N4879    N        0.83721    0.12893    0.39669    1.000
    N4880    N        0.82766    0.25491    0.37817    1.000
    N4881    N        0.81874    0.18772    0.43516    1.000
    N4882    N        0.84341    0.19166    0.37096    1.000
    Si4883   Si       0.84797    0.17045    0.40848    1.000
    N4884    N        0.84041    0.09421    0.51461    1.000
    N4885    N        0.84167    0.07240    0.58103    1.000
    Si4886   Si       0.84812    0.09862    0.61913    1.000
    Si4887   Si       0.81544    0.07856    0.54727    1.000
    Si4888   Si       0.84153    0.13856    0.52130    1.000
    N4889    N        0.83454    0.14773    0.56470    1.000
    Si4890   Si       0.84904    0.23525    0.60074    1.000
    N4891    N        0.84075    0.24424    0.55829    1.000
    Si4892   Si       0.85667    0.16633    0.59655    1.000
    N4893    N        0.83061    0.19762    0.61386    1.000
    N4894    N        0.81236    0.23665    0.49704    1.000
    N4895    N        0.82932    0.10664    0.68110    1.000
    N4896    N        0.82416    0.03934    0.67271    1.000
    Si4897   Si       0.81976    0.02664    0.74551    1.000
    Si4898   Si       0.86802    0.04804    0.67023    1.000
    N4899    N        0.86244    0.03335    0.74241    1.000
    N4900    N        0.86208    0.11500    0.74604    1.000
    Si4901   Si       0.81377    0.24157    0.73261    1.000
    N4902    N        0.86133    0.16623    0.69071    1.000
    N4903    N        0.84648    0.21170    0.73909    1.000
    Si4904   Si       0.84026    0.13670    0.71423    1.000
    N4905    N        0.87231    0.13542    0.62302    1.000
    N4906    N        0.85570    0.02275    0.83355    1.000
    N4907    N        0.86170    0.10010    0.81833    1.000
    Si4908   Si       0.85845    0.06462    0.84836    1.000
    Si4909   Si       0.81690    0.10447    0.82621    1.000
    Si4910   Si       0.86801    0.13154    0.78718    1.000
    Si4911   Si       0.81531    0.01079    0.82137    1.000
    N4912    N        0.85700    0.22692    0.80618    1.000
    N4913    N        0.83569    0.16148    0.78638    1.000
    Si4914   Si       0.83119    0.20377    0.78013    1.000
    N4915    N        0.85647    0.17710    0.86149    1.000
    Si4916   Si       0.86563    0.21841    0.84695    1.000
    N4917    N        0.82908    0.08096    0.94745    1.000
    Si4918   Si       0.86058    0.09784    0.92386    1.000
    N4919    N        0.86686    0.07047    0.89103    1.000
    N4920    N        0.83976    0.01493    0.92624    1.000
    Si4921   Si       0.86515    0.16955    0.94009    1.000
    N4922    N        0.84753    0.13859    0.91324    1.000
    N4923    N        0.86857    0.15066    0.97845    1.000
    Si4924   Si       0.82248    0.15799    0.88151    1.000
    N4925    N        0.85889    0.24581    0.88000    1.000
    N4926    N        0.84678    0.20892    0.94602    1.000
    Si4927   Si       0.85702    0.24544    0.96744    1.000
    N4928    N        0.82391    0.35970    0.09344    1.000
    N4929    N        0.86232    0.30871    0.02424    1.000
    Si4930   Si       0.82060    0.30514    0.00601    1.000
    Si4931   Si       0.81455    0.37966    0.05702    1.000
    N4932    N        0.84368    0.41193    0.04489    1.000
    Si4933   Si       0.84753    0.44802    0.06893    1.000
    N4934    N        0.86424    0.44969    0.11059    1.000
    Si4935   Si       0.85643    0.41575    0.00396    1.000
    N4936    N        0.85880    0.50312    0.99418    1.000
    N4937    N        0.81970    0.30034    0.13879    1.000
    N4938    N        0.86582    0.35577    0.14992    1.000
    Si4939   Si       0.82573    0.34272    0.13309    1.000
    Si4940   Si       0.84948    0.27026    0.15240    1.000
    Si4941   Si       0.85871    0.38056    0.19001    1.000
    N4942    N        0.86120    0.34044    0.21484    1.000
    Si4943   Si       0.84222    0.51022    0.23844    1.000
    N4944    N        0.81724    0.47635    0.14429    1.000
    Si4945   Si       0.85087    0.44945    0.15326    1.000
    N4946    N        0.83620    0.41137    0.16662    1.000
    N4947    N        0.83762    0.39603    0.23277    1.000
    N4948    N        0.85047    0.31265    0.32756    1.000
    Si4949   Si       0.85604    0.36029    0.25326    1.000
    Si4950   Si       0.84297    0.34455    0.35975    1.000
    N4951    N        0.82064    0.34419    0.27176    1.000
    N4952    N        0.86973    0.37734    0.35601    1.000
    Si4953   Si       0.84434    0.43024    0.25944    1.000
    N4954    N        0.83890    0.41278    0.30045    1.000
    N4955    N        0.84506    0.47725    0.27185    1.000
    N4956    N        0.81592    0.50007    0.36756    1.000
    Si4957   Si       0.82663    0.28862    0.40521    1.000
    N4958    N        0.84847    0.32967    0.39820    1.000
    N4959    N        0.84472    0.27408    0.44044    1.000
    Si4960   Si       0.82501    0.27306    0.47933    1.000
    Si4961   Si       0.86984    0.35356    0.42812    1.000
    N4962    N        0.84523    0.39051    0.42376    1.000
    Si4963   Si       0.83587    0.42699    0.39799    1.000
    N4964    N        0.84985    0.46976    0.48288    1.000
    Si4965   Si       0.85332    0.49975    0.38796    1.000
    N4966    N        0.86470    0.45658    0.38323    1.000
    Si4967   Si       0.82353    0.48444    0.45103    1.000
    N4968    N        0.81479    0.44591    0.43396    1.000
    N4969    N        0.84294    0.33984    0.53527    1.000
    Si4970   Si       0.85030    0.35609    0.57779    1.000
    N4971    N        0.86647    0.28254    0.49996    1.000
    N4972    N        0.81464    0.33403    0.59952    1.000
    N4973    N        0.83540    0.39378    0.59757    1.000
    N4974    N        0.83271    0.44139    0.54996    1.000
    Si4975   Si       0.82303    0.44566    0.50802    1.000
    Si4976   Si       0.86224    0.42155    0.57347    1.000
    N4977    N        0.84536    0.50109    0.60678    1.000
    N4978    N        0.82633    0.26786    0.61930    1.000
    Si4979   Si       0.83974    0.30697    0.62216    1.000
    Si4980   Si       0.85687    0.36049    0.66815    1.000
    N4981    N        0.83332    0.27756    0.71979    1.000
    N4982    N        0.84040    0.32072    0.66308    1.000
    Si4983   Si       0.81400    0.30527    0.69256    1.000
    N4984    N        0.81906    0.38331    0.66409    1.000
    Si4985   Si       0.86860    0.42716    0.68175    1.000
    N4986    N        0.85183    0.43914    0.64352    1.000
    N4987    N        0.84692    0.44551    0.71324    1.000
    Si4988   Si       0.81873    0.41312    0.63223    1.000
    N4989    N        0.87349    0.38760    0.70022    1.000
    N4990    N        0.85130    0.29824    0.79804    1.000
    N4991    N        0.85157    0.37047    0.80646    1.000
    Si4992   Si       0.86761    0.33666    0.78706    1.000
    Si4993   Si       0.81403    0.30277    0.81990    1.000
    N4994    N        0.86106    0.39631    0.86531    1.000
    N4995    N        0.85016    0.45642    0.82209    1.000
    N4996    N        0.82216    0.43270    0.76850    1.000
    Si4997   Si       0.86251    0.44384    0.75400    1.000
    Si4998   Si       0.86593    0.49334    0.80569    1.000
    N4999    N        0.87362    0.48473    0.76371    1.000
    N5000    N        0.83308    0.30337    0.89618    1.000
    N5001    N        0.82961    0.35959    0.91606    1.000
    Si5002   Si       0.84881    0.32107    0.93287    1.000
    Si5003   Si       0.81958    0.26531    0.88486    1.000
    N5004    N        0.81647    0.31587    0.96339    1.000
    N5005    N        0.87270    0.27875    0.94236    1.000
    N5006    N        0.82927    0.25929    0.99653    1.000
    N5007    N        0.83753    0.48218    0.92823    1.000
    Si5008   Si       0.86491    0.46869    0.96376    1.000
    Si5009   Si       0.84386    0.39771    0.90397    1.000
    N5010    N        0.83377    0.43645    0.97386    1.000
    Si5011   Si       0.84412    0.58894    0.05585    1.000
    N5012    N        0.83210    0.56921    0.09643    1.000
    Si5013   Si       0.83627    0.53838    0.00147    1.000
    N5014    N        0.86157    0.57040    0.01552    1.000
    N5015    N        0.85732    0.63348    0.06132    1.000
    Si5016   Si       0.87417    0.56104    0.10957    1.000
    Si5017   Si       0.85899    0.71841    0.09668    1.000
    Si5018   Si       0.84718    0.67190    0.04152    1.000
    N5019    N        0.82317    0.69150    0.09822    1.000
    N5020    N        0.86674    0.66991    0.00138    1.000
    N5021    N        0.87458    0.70142    0.06042    1.000
    Si5022   Si       0.86046    0.58538    0.23027    1.000
    N5023    N        0.85031    0.61130    0.19488    1.000
    N5024    N        0.84449    0.51201    0.19392    1.000
    N5025    N        0.83590    0.73235    0.24309    1.000
    Si5026   Si       0.85867    0.69620    0.23399    1.000
    N5027    N        0.83012    0.74489    0.16717    1.000
    N5028    N        0.82624    0.67029    0.22538    1.000
    Si5029   Si       0.82027    0.64059    0.19483    1.000
    Si5030   Si       0.84387    0.67054    0.13159    1.000
    N5031    N        0.86945    0.63662    0.12906    1.000
    Si5032   Si       0.85644    0.53634    0.29839    1.000
    Si5033   Si       0.83643    0.59783    0.29551    1.000
    Si5034   Si       0.86372    0.56974    0.36161    1.000
    N5035    N        0.86308    0.57302    0.31817    1.000
    N5036    N        0.85436    0.54906    0.25632    1.000
    N5037    N        0.86327    0.61616    0.26442    1.000
    N5038    N        0.82033    0.56692    0.36752    1.000
    N5039    N        0.82435    0.63045    0.32317    1.000
    N5040    N        0.82794    0.69601    0.30331    1.000
    Si5041   Si       0.85497    0.64194    0.35455    1.000
    Si5042   Si       0.86994    0.69818    0.31356    1.000
    Si5043   Si       0.85306    0.55288    0.44702    1.000
    N5044    N        0.85294    0.55451    0.49130    1.000
    N5045    N        0.84787    0.51192    0.42801    1.000
    N5046    N        0.86632    0.60886    0.37944    1.000
    N5047    N        0.85739    0.73909    0.41400    1.000
    N5048    N        0.86202    0.74543    0.48760    1.000
    N5049    N        0.87186    0.64594    0.43754    1.000
    Si5050   Si       0.83610    0.66388    0.42057    1.000
    N5051    N        0.81644    0.69508    0.44368    1.000
    N5052    N        0.85385    0.67637    0.38105    1.000
    Si5053   Si       0.83579    0.73262    0.45260    1.000
    N5054    N        0.84980    0.61285    0.52895    1.000
    Si5055   Si       0.85147    0.52911    0.57265    1.000
    Si5056   Si       0.82581    0.57456    0.51882    1.000
    N5057    N        0.81790    0.54521    0.55108    1.000
    N5058    N        0.85315    0.66939    0.59470    1.000
    N5059    N        0.83455    0.72771    0.54954    1.000
    Si5060   Si       0.86370    0.71508    0.52026    1.000
    Si5061   Si       0.82329    0.69692    0.57786    1.000
    N5062    N        0.85533    0.67716    0.50552    1.000
    Si5063   Si       0.82318    0.64828    0.52349    1.000
    N5064    N        0.83540    0.53905    0.73840    1.000
    N5065    N        0.84584    0.53582    0.66590    1.000
    N5066    N        0.83747    0.59948    0.69709    1.000
    Si5067   Si       0.82677    0.55795    0.69990    1.000
    Si5068   Si       0.81841    0.52188    0.63551    1.000
    Si5069   Si       0.86799    0.61794    0.72148    1.000
    N5070    N        0.81202    0.61159    0.63355    1.000
    Si5071   Si       0.83798    0.74488    0.70222    1.000
    Si5072   Si       0.84473    0.64012    0.62471    1.000
    Si5073   Si       0.86164    0.68147    0.67926    1.000
    N5074    N        0.85650    0.72413    0.66590    1.000
    N5075    N        0.82022    0.71146    0.72362    1.000
    Si5076   Si       0.84947    0.74354    0.62697    1.000
    N5077    N        0.86364    0.66069    0.71885    1.000
    N5078    N        0.82569    0.66463    0.66035    1.000
    Si5079   Si       0.84248    0.55120    0.83792    1.000
    N5080    N        0.83516    0.52302    0.80459    1.000
    Si5081   Si       0.82767    0.62109    0.78495    1.000
    N5082    N        0.86343    0.61309    0.76424    1.000
    N5083    N        0.85629    0.52367    0.86879    1.000
    Si5084   Si       0.86869    0.61943    0.84708    1.000
    Si5085   Si       0.81229    0.54492    0.77599    1.000
    N5086    N        0.83661    0.64005    0.82207    1.000
    N5087    N        0.86014    0.69574    0.78172    1.000
    Si5088   Si       0.83394    0.68515    0.81592    1.000
    N5089    N        0.85511    0.69895    0.85157    1.000
    Si5090   Si       0.83826    0.68147    0.74623    1.000
    Si5091   Si       0.85619    0.73704    0.87092    1.000
    Si5092   Si       0.82852    0.58372    0.94506    1.000
    N5093    N        0.85168    0.61664    0.96172    1.000
    Si5094   Si       0.83683    0.51943    0.90773    1.000
    N5095    N        0.85303    0.55646    0.92480    1.000
    Si5096   Si       0.84667    0.66060    0.96250    1.000
    N5097    N        0.87163    0.69102    0.94066    1.000
    Si5098   Si       0.86583    0.73195    0.93220    1.000
    N5099    N        0.82963    0.74166    0.90760    1.000
    Si5100   Si       0.84727    0.85729    0.04845    1.000
    Si5101   Si       0.86732    0.77852    0.06385    1.000
    N5102    N        0.86888    0.82051    0.06627    1.000
    N5103    N        0.84153    0.76261    0.03289    1.000
    N5104    N        0.82845    0.88281    0.07850    1.000
    N5105    N        0.85193    0.75946    0.10013    1.000
    Si5106   Si       0.85806    0.96535    0.00730    1.000
    N5107    N        0.84310    0.96891    0.04843    1.000
    N5108    N        0.86258    0.93327    0.11013    1.000
    Si5109   Si       0.87341    0.96028    0.07980    1.000
    Si5110   Si       0.82183    0.92054    0.09794    1.000
    N5111    N        0.83806    0.82957    0.20104    1.000
    Si5112   Si       0.85505    0.83075    0.15971    1.000
    N5113    N        0.82441    0.81174    0.13563    1.000
    Si5114   Si       0.82091    0.76643    0.13054    1.000
    Si5115   Si       0.86262    0.82447    0.23792    1.000
    Si5116   Si       0.83002    0.75950    0.21007    1.000
    N5117    N        0.87014    0.87319    0.15250    1.000
    N5118    N        0.87315    0.93220    0.24376    1.000
    N5119    N        0.81948    0.89539    0.21791    1.000
    Si5120   Si       0.85703    0.95778    0.21302    1.000
    Si5121   Si       0.85585    0.91341    0.14820    1.000
    N5122    N        0.87259    0.93924    0.17707    1.000
    N5123    N        0.83123    0.81411    0.26666    1.000
    Si5124   Si       0.83562    0.80436    0.30869    1.000
    N5125    N        0.82193    0.83597    0.33398    1.000
    Si5126   Si       0.82381    0.87874    0.32917    1.000
    N5127    N        0.82149    0.89127    0.28535    1.000
    N5128    N        0.83823    0.95131    0.34708    1.000
    Si5129   Si       0.83788    0.98999    0.32841    1.000
    N5130    N        0.85626    0.99000    0.28891    1.000
    N5131    N        0.86336    0.89024    0.33535    1.000
    Si5132   Si       0.85023    0.89622    0.25144    1.000
    N5133    N        0.84058    0.78604    0.37381    1.000
    Si5134   Si       0.84541    0.78281    0.41663    1.000
    N5135    N        0.82708    0.82777    0.41721    1.000
    Si5136   Si       0.85916    0.83677    0.44776    1.000
    N5137    N        0.85229    0.82055    0.48806    1.000
    N5138    N        0.81340    0.76987    0.44439    1.000
    N5139    N        0.81605    0.88532    0.45215    1.000
    N5140    N        0.84389    0.94079    0.42618    1.000
    N5141    N        0.83894    0.92776    0.49380    1.000
    Si5142   Si       0.85748    0.91191    0.45708    1.000
    N5143    N        0.83074    0.00716    0.43338    1.000
    N5144    N        0.85774    0.81007    0.55345    1.000
    Si5145   Si       0.82937    0.81732    0.52270    1.000
    N5146    N        0.82457    0.84554    0.60541    1.000
    Si5147   Si       0.85128    0.81311    0.59563    1.000
    N5148    N        0.82914    0.77785    0.60925    1.000
    N5149    N        0.84912    0.89247    0.56462    1.000
    Si5150   Si       0.84640    0.97420    0.59381    1.000
    Si5151   Si       0.84938    0.96616    0.51418    1.000
    N5152    N        0.86280    0.95811    0.55679    1.000
    Si5153   Si       0.84373    0.86225    0.64151    1.000
    N5154    N        0.84900    0.83133    0.66910    1.000
    Si5155   Si       0.84530    0.84854    0.73386    1.000
    N5156    N        0.87380    0.88914    0.72399    1.000
    Si5157   Si       0.86267    0.93551    0.72159    1.000
    N5158    N        0.84923    0.94649    0.62773    1.000
    N5159    N        0.82367    0.93492    0.70311    1.000
    Si5160   Si       0.81892    0.93519    0.65777    1.000
    N5161    N        0.81611    0.89098    0.65874    1.000
    N5162    N        0.84137    0.86323    0.77417    1.000
    Si5163   Si       0.85781    0.84721    0.85320    1.000
    N5164    N        0.85646    0.77363    0.84676    1.000
    N5165    N        0.82018    0.83395    0.83387    1.000
    Si5166   Si       0.81835    0.79109    0.83251    1.000
    N5167    N        0.85425    0.93257    0.76711    1.000
    N5168    N        0.82846    0.97036    0.80826    1.000
    N5169    N        0.86425    0.89054    0.85771    1.000
    Si5170   Si       0.86902    0.96120    0.79537    1.000
    Si5171   Si       0.81289    0.93460    0.78877    1.000
    Si5172   Si       0.85745    0.85161    0.93073    1.000
    Si5173   Si       0.83061    0.76356    0.99177    1.000
    N5174    N        0.86764    0.75960    0.96631    1.000
    Si5175   Si       0.83371    0.97304    0.93397    1.000
    N5176    N        0.84490    0.94921    0.89635    1.000
    Si5177   Si       0.84117    0.90719    0.89237    1.000
    N5178    N        0.82702    0.96613    0.97850    1.000
    N5179    N        0.86341    0.89465    0.92880    1.000
    Si5180   Si       0.88967    0.03887    0.02338    1.000
    N5181    N        0.91811    0.11239    0.06730    1.000
    Si5182   Si       0.92382    0.01387    0.08494    1.000
    N5183    N        0.92744    0.05162    0.10598    1.000
    N5184    N        0.92762    0.02462    0.04250    1.000
    N5185    N        0.89787    0.07580    0.99961    1.000
    Si5186   Si       0.87971    0.13221    0.06720    1.000
    N5187    N        0.88522    0.17508    0.06477    1.000
    N5188    N        0.92099    0.22547    0.09828    1.000
    Si5189   Si       0.92442    0.18576    0.08108    1.000
    N5190    N        0.89812    0.04257    0.17499    1.000
    N5191    N        0.92046    0.10239    0.14353    1.000
    Si5192   Si       0.91026    0.00984    0.20048    1.000
    Si5193   Si       0.88298    0.18431    0.18519    1.000
    N5194    N        0.92698    0.16307    0.11835    1.000
    N5195    N        0.92029    0.20322    0.16591    1.000
    N5196    N        0.88487    0.14023    0.18408    1.000
    Si5197   Si       0.89528    0.21352    0.12970    1.000
    Si5198   Si       0.89522    0.13802    0.13930    1.000
    N5199    N        0.87587    0.20062    0.22304    1.000
    Si5200   Si       0.89763    0.06212    0.30233    1.000
    N5201    N        0.91349    0.02261    0.30259    1.000
    N5202    N        0.89538    0.07781    0.34427    1.000
    N5203    N        0.91740    0.09710    0.28739    1.000
    Si5204   Si       0.90196    0.11878    0.25149    1.000
    Si5205   Si       0.92999    0.08213    0.37065    1.000
    Si5206   Si       0.89712    0.19205    0.26035    1.000
    N5207    N        0.91905    0.15521    0.26850    1.000
    N5208    N        0.92585    0.22317    0.26992    1.000
    N5209    N        0.87216    0.11001    0.45788    1.000
    N5210    N        0.87327    0.04083    0.47244    1.000
    Si5211   Si       0.87500    0.08197    0.49045    1.000
    N5212    N        0.89546    0.22312    0.39646    1.000
    N5213    N        0.88314    0.16964    0.43438    1.000
    Si5214   Si       0.89439    0.14365    0.46777    1.000
    Si5215   Si       0.91549    0.19355    0.42032    1.000
    N5216    N        0.91407    0.08158    0.57905    1.000
    N5217    N        0.91282    0.08849    0.50831    1.000
    N5218    N        0.88626    0.03182    0.54256    1.000
    Si5219   Si       0.87935    0.05046    0.58187    1.000
    Si5220   Si       0.90010    0.02256    0.50090    1.000
    Si5221   Si       0.92839    0.10569    0.54608    1.000
    N5222    N        0.88702    0.18947    0.57466    1.000
    N5223    N        0.89723    0.21784    0.51768    1.000
    Si5224   Si       0.89958    0.17806    0.53560    1.000
    Si5225   Si       0.91420    0.20721    0.60268    1.000
    N5226    N        0.87963    0.15244    0.50664    1.000
    N5227    N        0.89201    0.24520    0.61237    1.000
    Si5228   Si       0.87601    0.25364    0.53202    1.000
    Si5229   Si       0.92408    0.07332    0.62031    1.000
    Si5230   Si       0.92789    0.09831    0.69133    1.000
    Si5231   Si       0.87942    0.07514    0.73814    1.000
    N5232    N        0.87862    0.06687    0.63137    1.000
    N5233    N        0.89264    0.07395    0.69803    1.000
    N5234    N        0.89109    0.00922    0.66931    1.000
    N5235    N        0.90866    0.19228    0.64256    1.000
    Si5236   Si       0.90489    0.23475    0.65446    1.000
    N5237    N        0.91836    0.14002    0.68646    1.000
    N5238    N        0.91578    0.20347    0.72038    1.000
    Si5239   Si       0.87333    0.20238    0.70931    1.000
    Si5240   Si       0.88954    0.15494    0.65851    1.000
    N5241    N        0.87464    0.23942    0.68428    1.000
    N5242    N        0.91054    0.07254    0.77066    1.000
    Si5243   Si       0.91196    0.09282    0.80967    1.000
    N5244    N        0.90967    0.05749    0.84012    1.000
    Si5245   Si       0.89964    0.01528    0.84102    1.000
    N5246    N        0.90997    0.13643    0.79684    1.000
    N5247    N        0.90934    0.20636    0.85073    1.000
    Si5248   Si       0.92718    0.23352    0.75084    1.000
    N5249    N        0.92932    0.20883    0.78696    1.000
    N5250    N        0.90110    0.10583    0.94218    1.000
    N5251    N        0.90345    0.03397    0.94025    1.000
    Si5252   Si       0.91996    0.06726    0.96014    1.000
    Si5253   Si       0.89522    0.11608    0.98736    1.000
    Si5254   Si       0.87565    0.03136    0.90792    1.000
    N5255    N        0.92779    0.13805    0.87627    1.000
    N5256    N        0.90167    0.18181    0.91961    1.000
    N5257    N        0.89478    0.24781    0.99118    1.000
    Si5258   Si       0.89984    0.17266    0.87765    1.000
    N5259    N        0.92406    0.25103    0.92020    1.000
    N5260    N        0.89568    0.30843    0.10187    1.000
    Si5261   Si       0.89004    0.34131    0.01258    1.000
    N5262    N        0.91679    0.35177    0.04549    1.000
    Si5263   Si       0.92518    0.31823    0.07206    1.000
    N5264    N        0.92066    0.27787    0.05416    1.000
    Si5265   Si       0.88438    0.27174    0.02644    1.000
    Si5266   Si       0.89513    0.26088    0.08891    1.000
    Si5267   Si       0.89554    0.47893    0.09951    1.000
    Si5268   Si       0.89208    0.48460    0.01635    1.000
    N5269    N        0.88043    0.47351    0.05615    1.000
    N5270    N        0.92829    0.50481    0.99920    1.000
    N5271    N        0.93266    0.46537    0.11587    1.000
    N5272    N        0.88984    0.44463    0.99863    1.000
    Si5273   Si       0.89500    0.32676    0.14088    1.000
    N5274    N        0.88348    0.29267    0.16758    1.000
    Si5275   Si       0.88543    0.30635    0.20801    1.000
    N5276    N        0.88711    0.26950    0.23209    1.000
    N5277    N        0.92720    0.31349    0.21256    1.000
    N5278    N        0.88208    0.45754    0.18218    1.000
    N5279    N        0.89966    0.39335    0.19581    1.000
    Si5280   Si       0.90227    0.43267    0.21090    1.000
    Si5281   Si       0.88531    0.49812    0.19136    1.000
    N5282    N        0.89166    0.49921    0.23476    1.000
    N5283    N        0.91525    0.30035    0.30483    1.000
    N5284    N        0.88560    0.36470    0.28472    1.000
    Si5285   Si       0.91969    0.34317    0.30083    1.000
    Si5286   Si       0.88352    0.28524    0.32961    1.000
    N5287    N        0.90122    0.28122    0.36799    1.000
    Si5288   Si       0.92773    0.25961    0.24392    1.000
    N5289    N        0.92934    0.47821    0.36848    1.000
    N5290    N        0.90570    0.42600    0.32660    1.000
    Si5291   Si       0.89091    0.47556    0.27331    1.000
    Si5292   Si       0.90265    0.44547    0.36718    1.000
    Si5293   Si       0.87516    0.39573    0.31540    1.000
    N5294    N        0.88605    0.43592    0.25300    1.000
    Si5295   Si       0.90927    0.37507    0.37533    1.000
    Si5296   Si       0.88203    0.28924    0.45874    1.000
    N5297    N        0.91724    0.27889    0.43806    1.000
    N5298    N        0.91048    0.35129    0.41010    1.000
    N5299    N        0.87351    0.33471    0.46654    1.000
    Si5300   Si       0.92064    0.25910    0.39890    1.000
    Si5301   Si       0.89387    0.47511    0.48068    1.000
    N5302    N        0.91859    0.41379    0.39078    1.000
    N5303    N        0.91117    0.45044    0.45007    1.000
    Si5304   Si       0.90082    0.28566    0.59896    1.000
    N5305    N        0.90635    0.27606    0.55746    1.000
    N5306    N        0.91720    0.33402    0.52579    1.000
    Si5307   Si       0.92122    0.37158    0.55006    1.000
    N5308    N        0.87580    0.32235    0.59844    1.000
    Si5309   Si       0.91209    0.34381    0.61320    1.000
    Si5310   Si       0.87518    0.32625    0.51142    1.000
    N5311    N        0.88322    0.38466    0.56027    1.000
    N5312    N        0.91215    0.46101    0.51807    1.000
    N5313    N        0.88842    0.45298    0.58593    1.000
    Si5314   Si       0.90490    0.47929    0.55769    1.000
    Si5315   Si       0.87261    0.47171    0.62166    1.000
    N5316    N        0.92710    0.51000    0.58101    1.000
    N5317    N        0.89738    0.36217    0.64931    1.000
    N5318    N        0.90685    0.30083    0.69793    1.000
    Si5319   Si       0.87748    0.27248    0.71092    1.000
    Si5320   Si       0.92742    0.32616    0.72554    1.000
    Si5321   Si       0.89710    0.38128    0.73582    1.000
    N5322    N        0.91331    0.42907    0.67409    1.000
    N5323    N        0.89787    0.49079    0.65053    1.000
    Si5324   Si       0.92191    0.38607    0.67540    1.000
    N5325    N        0.90180    0.33714    0.81418    1.000
    Si5326   Si       0.91486    0.30284    0.83628    1.000
    Si5327   Si       0.88691    0.37129    0.83879    1.000
    N5328    N        0.90912    0.26589    0.81680    1.000
    N5329    N        0.89099    0.34245    0.75165    1.000
    Si5330   Si       0.87558    0.26368    0.78910    1.000
    N5331    N        0.89424    0.26120    0.75080    1.000
    N5332    N        0.90942    0.41216    0.82970    1.000
    N5333    N        0.89474    0.41690    0.75837    1.000
    Si5334   Si       0.87626    0.43423    0.84820    1.000
    Si5335   Si       0.92732    0.41429    0.78708    1.000
    N5336    N        0.90533    0.50428    0.82351    1.000
    Si5337   Si       0.89794    0.50638    0.86584    1.000
    N5338    N        0.92249    0.36471    0.86978    1.000
    N5339    N        0.91556    0.31138    0.98836    1.000
    Si5340   Si       0.92020    0.33423    0.89910    1.000
    Si5341   Si       0.88781    0.26849    0.90315    1.000
    N5342    N        0.89090    0.34359    0.92921    1.000
    N5343    N        0.90499    0.29773    0.87695    1.000
    Si5344   Si       0.91183    0.27411    0.96346    1.000
    N5345    N        0.87444    0.37621    0.99192    1.000
    Si5346   Si       0.89273    0.38149    0.95190    1.000
    N5347    N        0.90249    0.47820    0.94163    1.000
    N5348    N        0.87740    0.41446    0.92746    1.000
    Si5349   Si       0.90273    0.44614    0.91237    1.000
    N5350    N        0.89545    0.46325    0.87434    1.000
    N5351    N        0.88860    0.58513    0.07503    1.000
    N5352    N        0.91014    0.61941    0.00999    1.000
    Si5353   Si       0.92253    0.59906    0.04655    1.000
    Si5354   Si       0.88741    0.62640    0.09092    1.000
    N5355    N        0.88289    0.51918    0.11031    1.000
    N5356    N        0.92853    0.63388    0.07439    1.000
    Si5357   Si       0.91404    0.71850    0.05664    1.000
    N5358    N        0.92913    0.69554    0.02202    1.000
    Si5359   Si       0.90964    0.66285    0.00160    1.000
    N5360    N        0.91993    0.51412    0.17209    1.000
    Si5361   Si       0.88155    0.61557    0.16517    1.000
    N5362    N        0.89766    0.56503    0.21452    1.000
    Si5363   Si       0.91469    0.55771    0.17619    1.000
    N5364    N        0.88889    0.57618    0.14756    1.000
    N5365    N        0.91781    0.63370    0.18423    1.000
    N5366    N        0.90926    0.74912    0.15182    1.000
    Si5367   Si       0.91875    0.67581    0.19479    1.000
    Si5368   Si       0.91991    0.71191    0.13328    1.000
    N5369    N        0.88461    0.70080    0.19829    1.000
    Si5370   Si       0.87358    0.73364    0.17122    1.000
    N5371    N        0.87604    0.70107    0.13412    1.000
    N5372    N        0.89289    0.51543    0.29326    1.000
    Si5373   Si       0.90049    0.53752    0.24959    1.000
    N5374    N        0.88263    0.53103    0.37201    1.000
    Si5375   Si       0.88728    0.64644    0.28171    1.000
    N5376    N        0.88559    0.65927    0.32686    1.000
    N5377    N        0.88497    0.68960    0.27022    1.000
    Si5378   Si       0.92403    0.70359    0.26250    1.000
    N5379    N        0.87691    0.72875    0.34335    1.000
    Si5380   Si       0.92564    0.52166    0.37254    1.000
    Si5381   Si       0.92404    0.54831    0.44626    1.000
    N5382    N        0.90801    0.51835    0.47345    1.000
    Si5383   Si       0.89167    0.61303    0.41784    1.000
    N5384    N        0.89010    0.57299    0.43519    1.000
    N5385    N        0.91000    0.63065    0.49107    1.000
    N5386    N        0.93395    0.62287    0.42065    1.000
    Si5387   Si       0.87644    0.71367    0.38445    1.000
    N5388    N        0.91754    0.70586    0.39751    1.000
    N5389    N        0.91494    0.69553    0.46865    1.000
    Si5390   Si       0.88651    0.66395    0.47607    1.000
    Si5391   Si       0.93365    0.71595    0.43481    1.000
    Si5392   Si       0.91297    0.54878    0.56599    1.000
    N5393    N        0.91295    0.56805    0.52790    1.000
    Si5394   Si       0.88795    0.53696    0.50710    1.000
    Si5395   Si       0.89225    0.60727    0.52754    1.000
    N5396    N        0.87852    0.51333    0.54277    1.000
    Si5397   Si       0.89708    0.58123    0.61925    1.000
    N5398    N        0.87588    0.55928    0.59031    1.000
    N5399    N        0.91058    0.63188    0.55979    1.000
    N5400    N        0.88312    0.62291    0.62266    1.000
    N5401    N        0.90283    0.71071    0.53766    1.000
    Si5402   Si       0.91427    0.73175    0.57474    1.000
    Si5403   Si       0.89651    0.65616    0.59342    1.000
    N5404    N        0.91892    0.69060    0.60317    1.000
    N5405    N        0.89228    0.74788    0.61462    1.000
    N5406    N        0.90975    0.61286    0.71071    1.000
    N5407    N        0.90073    0.52588    0.71193    1.000
    Si5408   Si       0.88771    0.52754    0.67003    1.000
    N5409    N        0.91147    0.56260    0.65470    1.000
    Si5410   Si       0.87507    0.52453    0.74571    1.000
    Si5411   Si       0.91034    0.71226    0.64177    1.000
    N5412    N        0.87747    0.75580    0.72110    1.000
    N5413    N        0.90225    0.67262    0.66608    1.000
    Si5414   Si       0.92731    0.64629    0.68926    1.000
    Si5415   Si       0.91354    0.76177    0.69867    1.000
    N5416    N        0.89712    0.54671    0.77516    1.000
    Si5417   Si       0.89007    0.58759    0.78543    1.000
    N5418    N        0.92891    0.60477    0.78211    1.000
    N5419    N        0.86972    0.58313    0.82516    1.000
    Si5420   Si       0.89660    0.68278    0.85634    1.000
    N5421    N        0.90020    0.64731    0.83297    1.000
    Si5422   Si       0.89556    0.71809    0.79074    1.000
    N5423    N        0.91751    0.70984    0.82791    1.000
    N5424    N        0.92924    0.71689    0.76341    1.000
    Si5425   Si       0.93016    0.62788    0.88634    1.000
    Si5426   Si       0.88272    0.59524    0.98450    1.000
    N5427    N        0.90902    0.58703    0.95153    1.000
    N5428    N        0.91618    0.53604    0.89203    1.000
    Si5429   Si       0.89289    0.57043    0.91195    1.000
    N5430    N        0.89250    0.60472    0.88406    1.000
    N5431    N        0.91921    0.66826    0.89252    1.000
    Si5432   Si       0.91333    0.68503    0.93037    1.000
    N5433    N        0.89154    0.73431    0.89577    1.000
    Si5434   Si       0.93107    0.74902    0.90837    1.000
    Si5435   Si       0.90513    0.84353    0.06608    1.000
    N5436    N        0.88741    0.87382    0.04069    1.000
    N5437    N        0.92235    0.86362    0.10050    1.000
    N5438    N        0.90646    0.76018    0.05206    1.000
    N5439    N        0.90698    0.94309    0.05766    1.000
    Si5440   Si       0.90765    0.91084    0.02627    1.000
    N5441    N        0.88138    0.00158    0.09199    1.000
    N5442    N        0.88236    0.00342    0.99840    1.000
    N5443    N        0.88072    0.92819    0.99715    1.000
    Si5444   Si       0.90814    0.85687    0.14043    1.000
    N5445    N        0.89589    0.81669    0.14985    1.000
    Si5446   Si       0.91337    0.77387    0.22433    1.000
    Si5447   Si       0.92726    0.78848    0.15626    1.000
    N5448    N        0.87387    0.76741    0.20525    1.000
    N5449    N        0.87571    0.99761    0.22369    1.000
    Si5450   Si       0.91719    0.93084    0.24490    1.000
    Si5451   Si       0.91537    0.93947    0.17053    1.000
    N5452    N        0.92352    0.98137    0.17156    1.000
    Si5453   Si       0.91283    0.80116    0.29399    1.000
    Si5454   Si       0.92066    0.86266    0.26314    1.000
    N5455    N        0.89904    0.80398    0.25074    1.000
    Si5456   Si       0.87731    0.77146    0.35319    1.000
    N5457    N        0.87723    0.79855    0.31728    1.000
    N5458    N        0.87824    0.86405    0.24873    1.000
    N5459    N        0.92654    0.84081    0.29931    1.000
    Si5460   Si       0.89877    0.98349    0.29358    1.000
    N5461    N        0.90077    0.95122    0.32095    1.000
    Si5462   Si       0.87448    0.93003    0.34764    1.000
    N5463    N        0.93167    0.96628    0.26721    1.000
    N5464    N        0.91010    0.78549    0.37874    1.000
    N5465    N        0.88056    0.87322    0.45171    1.000
    N5466    N        0.88198    0.79912    0.43886    1.000
    Si5467   Si       0.91963    0.79010    0.42086    1.000
    Si5468   Si       0.88031    0.78676    0.48128    1.000
    Si5469   Si       0.88632    0.95611    0.42164    1.000
    Si5470   Si       0.91759    0.94742    0.49244    1.000
    Si5471   Si       0.92158    0.89016    0.45233    1.000
    N5472    N        0.89927    0.99670    0.42085    1.000
    N5473    N        0.90442    0.93088    0.45490    1.000
    N5474    N        0.89635    0.93358    0.38571    1.000
    N5475    N        0.91477    0.85538    0.55409    1.000
    N5476    N        0.89598    0.82003    0.60385    1.000
    Si5477   Si       0.90273    0.81422    0.55912    1.000
    Si5478   Si       0.90918    0.86843    0.59777    1.000
    N5479    N        0.91534    0.77359    0.55645    1.000
    N5480    N        0.91600    0.80249    0.50107    1.000
    N5481    N        0.90956    0.91368    0.52154    1.000
    N5482    N        0.91084    0.91617    0.58915    1.000
    Si5483   Si       0.89263    0.99106    0.55497    1.000
    Si5484   Si       0.88125    0.91796    0.55469    1.000
    N5485    N        0.89061    0.97979    0.50454    1.000
    N5486    N        0.93160    0.97988    0.56449    1.000
    N5487    N        0.87428    0.00791    0.59720    1.000
    Si5488   Si       0.91328    0.78586    0.62605    1.000
    N5489    N        0.92057    0.86127    0.67819    1.000
    Si5490   Si       0.89076    0.82847    0.68638    1.000
    N5491    N        0.90535    0.79054    0.66856    1.000
    N5492    N        0.87950    0.82030    0.72762    1.000
    N5493    N        0.88127    0.88140    0.62951    1.000
    Si5494   Si       0.91013    0.89532    0.70067    1.000
    N5495    N        0.88663    0.97095    0.72245    1.000
    Si5496   Si       0.90334    0.00434    0.62803    1.000
    N5497    N        0.89440    0.92756    0.67716    1.000
    Si5498   Si       0.90931    0.96967    0.68264    1.000
    Si5499   Si       0.89008    0.92393    0.63264    1.000
    N5500    N        0.91522    0.96228    0.63143    1.000
    N5501    N        0.88615    0.83215    0.82242    1.000
    Si5502   Si       0.89129    0.78736    0.82525    1.000
    N5503    N        0.92425    0.79153    0.85374    1.000
    N5504    N        0.89820    0.76741    0.78758    1.000
    Si5505   Si       0.92343    0.85108    0.81175    1.000
    Si5506   Si       0.89259    0.78546    0.74805    1.000
    N5507    N        0.91316    0.88231    0.78192    1.000
    N5508    N        0.89659    0.93884    0.81904    1.000
    Si5509   Si       0.90381    0.90943    0.84996    1.000
    N5510    N        0.90015    0.99260    0.78655    1.000
    Si5511   Si       0.87386    0.89251    0.77079    1.000
    Si5512   Si       0.89868    0.00593    0.74500    1.000
    N5513    N        0.91415    0.78817    0.92292    1.000
    Si5514   Si       0.91315    0.81513    0.89066    1.000
    Si5515   Si       0.89724    0.79124    0.96317    1.000
    N5516    N        0.87884    0.83154    0.96264    1.000
    N5517    N        0.87351    0.83520    0.89317    1.000
    N5518    N        0.93099    0.79001    0.99016    1.000
    Si5519   Si       0.88797    0.92125    0.95556    1.000
    N5520    N        0.93026    0.91224    0.94688    1.000
    Si5521   Si       0.90646    0.99642    0.96364    1.000
    N5522    N        0.88505    0.96418    0.94303    1.000
    N5523    N        0.89200    0.00038    0.88245    1.000
    Si5524   Si       0.88519    0.96179    0.89974    1.000
    N5525    N        0.91391    0.93364    0.88432    1.000
    N5526    N        0.97498    0.09729    0.03507    1.000
    N5527    N        0.97838    0.10270    0.10413    1.000
    Si5528   Si       0.94750    0.13030    0.03812    1.000
    Si5529   Si       0.93617    0.09396    0.10255    1.000
    Si5530   Si       0.98740    0.07510    0.99717    1.000
    N5531    N        0.99063    0.03560    0.01432    1.000
    N5532    N        0.97180    0.22635    0.02691    1.000
    N5533    N        0.95500    0.17009    0.05624    1.000
    Si5534   Si       0.99128    0.18948    0.03868    1.000
    N5535    N        0.93194    0.13523    0.99803    1.000
    Si5536   Si       0.96327    0.26138    0.05242    1.000
    Si5537   Si       0.93216    0.05380    0.15079    1.000
    N5538    N        0.93182    0.11389    0.22065    1.000
    N5539    N        0.94552    0.02099    0.22435    1.000
    Si5540   Si       0.97569    0.05082    0.21544    1.000
    N5541    N        0.96580    0.02294    0.14529    1.000
    N5542    N        0.96345    0.07214    0.17906    1.000
    Si5543   Si       0.94149    0.10935    0.17964    1.000
    N5544    N        0.98293    0.20481    0.15925    1.000
    N5545    N        0.95204    0.24613    0.21040    1.000
    Si5546   Si       0.95420    0.23528    0.16814    1.000
    N5547    N        0.96983    0.14040    0.16562    1.000
    Si5548   Si       0.95188    0.17575    0.15117    1.000
    N5549    N        0.94817    0.11999    0.34984    1.000
    N5550    N        0.97911    0.07635    0.25006    1.000
    N5551    N        0.98151    0.01638    0.28615    1.000
    Si5552   Si       0.96711    0.11779    0.24773    1.000
    Si5553   Si       0.98636    0.10883    0.33110    1.000
    Si5554   Si       0.98495    0.04205    0.36062    1.000
    N5555    N        0.97647    0.12900    0.29351    1.000
    N5556    N        0.98977    0.06744    0.32601    1.000
    Si5557   Si       0.95627    0.20956    0.30061    1.000
    N5558    N        0.96236    0.24567    0.32417    1.000
    N5559    N        0.93878    0.17766    0.32578    1.000
    Si5560   Si       0.95847    0.16334    0.36090    1.000
    Si5561   Si       0.98670    0.23464    0.36014    1.000
    Si5562   Si       0.93477    0.13488    0.30486    1.000
    N5563    N        0.94561    0.03889    0.37637    1.000
    N5564    N        0.94352    0.09437    0.40936    1.000
    N5565    N        0.96357    0.01855    0.43199    1.000
    N5566    N        0.97773    0.07654    0.46590    1.000
    Si5567   Si       0.97005    0.06128    0.42517    1.000
    Si5568   Si       0.95623    0.13178    0.42655    1.000
    Si5569   Si       0.97143    0.16816    0.48255    1.000
    Si5570   Si       0.97593    0.22180    0.43432    1.000
    N5571    N        0.93836    0.14349    0.46493    1.000
    N5572    N        0.96016    0.23835    0.39486    1.000
    N5573    N        0.99128    0.25840    0.45037    1.000
    N5574    N        0.93795    0.21357    0.45430    1.000
    N5575    N        0.94414    0.16672    0.40131    1.000
    Si5576   Si       0.93465    0.22652    0.49765    1.000
    N5577    N        0.96861    0.08899    0.53756    1.000
    N5578    N        0.98891    0.07334    0.60393    1.000
    Si5579   Si       0.95208    0.06917    0.50115    1.000
    N5580    N        0.93728    0.03175    0.61892    1.000
    N5581    N        0.94343    0.02733    0.49583    1.000
    N5582    N        0.95615    0.20710    0.58700    1.000
    Si5583   Si       0.96175    0.17657    0.55521    1.000
    N5584    N        0.95788    0.19391    0.51608    1.000
    N5585    N        0.92897    0.14877    0.55072    1.000
    N5586    N        0.98562    0.02776    0.66918    1.000
    Si5587   Si       0.98062    0.03204    0.62507    1.000
    N5588    N        0.94776    0.09203    0.65314    1.000
    N5589    N        0.93764    0.02110    0.73241    1.000
    N5590    N        0.95762    0.08928    0.72282    1.000
    Si5591   Si       0.98205    0.12253    0.73993    1.000
    Si5592   Si       0.98873    0.09983    0.64000    1.000
    N5593    N        0.97349    0.19102    0.68953    1.000
    Si5594   Si       0.96999    0.23246    0.69666    1.000
    N5595    N        0.96847    0.24278    0.74034    1.000
    Si5596   Si       0.94105    0.17048    0.70905    1.000
    N5597    N        0.94161    0.25282    0.67077    1.000
    N5598    N        0.95332    0.15436    0.74736    1.000
    N5599    N        0.95759    0.09501    0.82786    1.000
    Si5600   Si       0.94826    0.05982    0.85914    1.000
    N5601    N        0.98176    0.05221    0.77853    1.000
    Si5602   Si       0.94843    0.05885    0.75236    1.000
    Si5603   Si       0.96063    0.13304    0.84910    1.000
    N5604    N        0.97000    0.16371    0.82025    1.000
    N5605    N        0.96584    0.24524    0.84625    1.000
    Si5606   Si       0.94028    0.16676    0.78717    1.000
    Si5607   Si       0.93191    0.23129    0.82462    1.000
    Si5608   Si       0.93609    0.11879    0.91412    1.000
    N5609    N        0.97525    0.02990    0.87833    1.000
    N5610    N        0.94903    0.08128    0.89709    1.000
    N5611    N        0.96350    0.06819    0.96097    1.000
    Si5612   Si       0.97923    0.05646    0.91882    1.000
    N5613    N        0.96707    0.13853    0.93912    1.000
    N5614    N        0.95205    0.19986    0.96516    1.000
    Si5615   Si       0.98580    0.22448    0.87868    1.000
    N5616    N        0.96708    0.19248    0.90056    1.000
    Si5617   Si       0.97544    0.23059    0.98351    1.000
    Si5618   Si       0.96021    0.15931    0.97668    1.000
    Si5619   Si       0.93623    0.20820    0.92636    1.000
    N5620    N        0.96594    0.32190    0.09204    1.000
    N5621    N        0.97519    0.29795    0.02992    1.000
    Si5622   Si       0.98419    0.29110    0.11655    1.000
    N5623    N        0.98443    0.36411    0.04139    1.000
    N5624    N        0.99383    0.26077    0.08658    1.000
    Si5625   Si       0.94657    0.38350    0.05193    1.000
    Si5626   Si       0.96344    0.36167    0.11985    1.000
    N5627    N        0.94170    0.38975    0.09351    1.000
    Si5628   Si       0.97328    0.45567    0.05195    1.000
    N5629    N        0.96226    0.49855    0.05666    1.000
    N5630    N        0.95088    0.42367    0.03086    1.000
    Si5631   Si       0.95183    0.42743    0.11448    1.000
    N5632    N        0.98729    0.43848    0.09037    1.000
    Si5633   Si       0.95335    0.30740    0.17808    1.000
    Si5634   Si       0.96336    0.32856    0.23551    1.000
    N5635    N        0.95785    0.27506    0.14948    1.000
    N5636    N        0.96872    0.36663    0.21077    1.000
    N5637    N        0.93895    0.34243    0.15275    1.000
    Si5638   Si       0.93719    0.37931    0.18176    1.000
    Si5639   Si       0.98629    0.26521    0.22812    1.000
    N5640    N        0.94552    0.43719    0.21205    1.000
    Si5641   Si       0.97749    0.43525    0.18271    1.000
    Si5642   Si       0.94941    0.49377    0.14691    1.000
    N5643    N        0.98507    0.47116    0.16074    1.000
    N5644    N        0.95633    0.40859    0.15307    1.000
    N5645    N        0.95529    0.34599    0.27391    1.000
    N5646    N        0.96351    0.28021    0.26259    1.000
    Si5647   Si       0.95776    0.28409    0.30776    1.000
    N5648    N        0.98123    0.30794    0.33734    1.000
    Si5649   Si       0.98148    0.37792    0.28272    1.000
    Si5650   Si       0.97437    0.35001    0.35004    1.000
    N5651    N        0.93329    0.36062    0.34091    1.000
    Si5652   Si       0.94656    0.43750    0.31216    1.000
    N5653    N        0.95988    0.41419    0.27731    1.000
    N5654    N        0.97858    0.43853    0.34186    1.000
    N5655    N        0.93648    0.47138    0.28304    1.000
    Si5656   Si       0.96057    0.44820    0.25243    1.000
    Si5657   Si       0.95028    0.35410    0.42855    1.000
    N5658    N        0.96733    0.32568    0.45524    1.000
    Si5659   Si       0.95564    0.28378    0.45837    1.000
    N5660    N        0.97909    0.35933    0.39533    1.000
    N5661    N        0.95012    0.39161    0.45099    1.000
    N5662    N        0.97287    0.44130    0.48870    1.000
    Si5663   Si       0.93721    0.42775    0.42739    1.000
    N5664    N        0.97478    0.44628    0.41752    1.000
    Si5665   Si       0.97007    0.46209    0.37698    1.000
    Si5666   Si       0.96935    0.39588    0.48927    1.000
    N5667    N        0.97341    0.29808    0.55853    1.000
    Si5668   Si       0.97613    0.30251    0.60217    1.000
    Si5669   Si       0.97696    0.37586    0.61450    1.000
    N5670    N        0.94049    0.36721    0.58969    1.000
    Si5671   Si       0.93830    0.29572    0.53282    1.000
    N5672    N        0.94066    0.27004    0.49851    1.000
    N5673    N        0.96630    0.46723    0.55764    1.000
    N5674    N        0.94582    0.40012    0.52761    1.000
    Si5675   Si       0.95034    0.44298    0.52571    1.000
    Si5676   Si       0.96225    0.48935    0.59783    1.000
    Si5677   Si       0.98736    0.50296    0.54560    1.000
    N5678    N        0.93542    0.30595    0.62236    1.000
    Si5679   Si       0.93788    0.29645    0.66687    1.000
    Si5680   Si       0.97660    0.36110    0.69568    1.000
    N5681    N        0.96727    0.31870    0.69124    1.000
    N5682    N        0.96382    0.37968    0.65627    1.000
    N5683    N        0.93434    0.36860    0.71354    1.000
    N5684    N        0.96643    0.46438    0.63250    1.000
    N5685    N        0.95392    0.48311    0.69588    1.000
    Si5686   Si       0.93224    0.46569    0.66113    1.000
    N5687    N        0.95798    0.31335    0.82923    1.000
    N5688    N        0.95298    0.31507    0.75987    1.000
    Si5689   Si       0.94213    0.33788    0.79578    1.000
    Si5690   Si       0.98412    0.28179    0.83190    1.000
    N5691    N        0.95183    0.37843    0.78323    1.000
    N5692    N        0.95775    0.44561    0.78042    1.000
    N5693    N        0.97374    0.42750    0.84850    1.000
    Si5694   Si       0.98115    0.48076    0.76715    1.000
    Si5695   Si       0.93934    0.40399    0.86378    1.000
    N5696    N        0.96914    0.49167    0.87098    1.000
    N5697    N        0.95586    0.31761    0.91928    1.000
    N5698    N        0.95896    0.26878    0.97013    1.000
    Si5699   Si       0.95948    0.27479    0.92544    1.000
    N5700    N        0.98188    0.33904    0.97705    1.000
    Si5701   Si       0.95803    0.30696    0.99302    1.000
    N5702    N        0.93249    0.39287    0.96262    1.000
    N5703    N        0.94096    0.42330    0.90302    1.000
    Si5704   Si       0.97104    0.45145    0.88422    1.000
    Si5705   Si       0.94143    0.48808    0.96105    1.000
    N5706    N        0.95640    0.44887    0.96838    1.000
    Si5707   Si       0.96621    0.41440    0.93915    1.000
    Si5708   Si       0.92875    0.42571    0.99362    1.000
    Si5709   Si       0.95634    0.52674    0.02334    1.000
    N5710    N        0.94315    0.56389    0.04154    1.000
    Si5711   Si       0.99000    0.51563    0.08590    1.000
    N5712    N        0.98387    0.67547    0.05481    1.000
    N5713    N        0.96764    0.74712    0.04200    1.000
    Si5714   Si       0.96965    0.70445    0.02713    1.000
    Si5715   Si       0.95599    0.66531    0.08676    1.000
    N5716    N        0.98159    0.65251    0.12049    1.000
    N5717    N        0.93347    0.70192    0.09311    1.000
    N5718    N        0.96686    0.52561    0.12112    1.000
    Si5719   Si       0.95593    0.61365    0.19539    1.000
    N5720    N        0.96191    0.60467    0.23616    1.000
    N5721    N        0.95344    0.57909    0.17196    1.000
    Si5722   Si       0.98142    0.55893    0.14675    1.000
    N5723    N        0.94315    0.69194    0.16372    1.000
    Si5724   Si       0.98165    0.67238    0.15834    1.000
    N5725    N        0.98879    0.63943    0.18640    1.000
    N5726    N        0.93867    0.67416    0.23444    1.000
    Si5727   Si       0.97623    0.56444    0.33322    1.000
    Si5728   Si       0.97481    0.56988    0.25779    1.000
    N5729    N        0.94483    0.53429    0.33545    1.000
    N5730    N        0.94016    0.54263    0.26405    1.000
    N5731    N        0.96112    0.59542    0.35731    1.000
    Si5732   Si       0.94177    0.51318    0.29865    1.000
    Si5733   Si       0.96096    0.73736    0.31697    1.000
    N5734    N        0.95379    0.66171    0.36140    1.000
    N5735    N        0.97857    0.72933    0.35580    1.000
    Si5736   Si       0.95729    0.64226    0.25684    1.000
    N5737    N        0.93715    0.70199    0.30479    1.000
    Si5738   Si       0.97849    0.74976    0.24940    1.000
    Si5739   Si       0.92859    0.66341    0.32617    1.000
    N5740    N        0.92968    0.63961    0.28853    1.000
    N5741    N        0.93523    0.74407    0.24748    1.000
    Si5742   Si       0.94282    0.61895    0.46322    1.000
    N5743    N        0.94664    0.53241    0.41075    1.000
    N5744    N        0.94911    0.57750    0.46796    1.000
    Si5745   Si       0.95977    0.62681    0.38753    1.000
    Si5746   Si       0.98685    0.51810    0.41609    1.000
    N5747    N        0.97338    0.69577    0.42239    1.000
    N5748    N        0.94287    0.75775    0.43976    1.000
    N5749    N        0.97999    0.64116    0.47003    1.000
    Si5750   Si       0.96021    0.70045    0.38137    1.000
    N5751    N        0.96799    0.60725    0.53295    1.000
    N5752    N        0.97385    0.53308    0.51584    1.000
    Si5753   Si       0.95507    0.57192    0.51106    1.000
    Si5754   Si       0.94796    0.61529    0.57314    1.000
    N5755    N        0.93344    0.58005    0.59156    1.000
    N5756    N        0.96296    0.64384    0.60116    1.000
    N5757    N        0.96529    0.67840    0.52196    1.000
    N5758    N        0.95866    0.72840    0.57489    1.000
    N5759    N        0.95870    0.74181    0.50608    1.000
    Si5760   Si       0.96689    0.68932    0.59872    1.000
    Si5761   Si       0.98548    0.64327    0.51286    1.000
    Si5762   Si       0.98425    0.71410    0.54086    1.000
    Si5763   Si       0.93398    0.70537    0.50757    1.000
    N5764    N        0.95552    0.61900    0.66840    1.000
    Si5765   Si       0.94315    0.52044    0.71768    1.000
    N5766    N        0.96015    0.55899    0.70679    1.000
    Si5767   Si       0.93266    0.58428    0.68520    1.000
    Si5768   Si       0.98408    0.62477    0.63449    1.000
    N5769    N        0.93000    0.72843    0.67797    1.000
    N5770    N        0.95095    0.65855    0.72408    1.000
    N5771    N        0.97846    0.70640    0.63748    1.000
    Si5772   Si       0.97156    0.73177    0.67238    1.000
    Si5773   Si       0.97116    0.57443    0.84414    1.000
    N5774    N        0.96568    0.53798    0.82254    1.000
    N5775    N        0.94819    0.61037    0.84881    1.000
    N5776    N        0.95432    0.51291    0.75952    1.000
    Si5777   Si       0.93212    0.52638    0.79599    1.000
    Si5778   Si       0.95500    0.62480    0.75221    1.000
    Si5779   Si       0.93880    0.63494    0.81472    1.000
    Si5780   Si       0.96201    0.68798    0.75433    1.000
    N5781    N        0.96631    0.65695    0.78759    1.000
    Si5782   Si       0.95594    0.72405    0.83809    1.000
    Si5783   Si       0.94161    0.75595    0.77313    1.000
    N5784    N        0.96398    0.75614    0.81081    1.000
    N5785    N        0.96580    0.51626    0.93709    1.000
    N5786    N        0.95831    0.61129    0.91503    1.000
    N5787    N        0.97660    0.60858    0.98354    1.000
    Si5788   Si       0.95833    0.52434    0.89692    1.000
    N5789    N        0.98414    0.55724    0.88121    1.000
    Si5790   Si       0.94296    0.61834    0.95746    1.000
    N5791    N        0.96139    0.73368    0.87948    1.000
    Si5792   Si       0.97263    0.69342    0.95505    1.000
    N5793    N        0.93851    0.71869    0.94009    1.000
    N5794    N        0.93425    0.66107    0.96225    1.000
    Si5795   Si       0.97911    0.83164    0.07399    1.000
    N5796    N        0.94107    0.82009    0.05339    1.000
    Si5797   Si       0.94023    0.78124    0.03295    1.000
    N5798    N        0.98684    0.85938    0.11017    1.000
    Si5799   Si       0.95412    0.88935    0.11385    1.000
    N5800    N        0.94772    0.89706    0.01271    1.000
    N5801    N        0.96429    0.91086    0.07784    1.000
    N5802    N        0.96707    0.96884    0.03617    1.000
    Si5803   Si       0.94918    0.94997    0.07061    1.000
    N5804    N        0.94993    0.98096    0.09968    1.000
    Si5805   Si       0.98073    0.89231    0.04055    1.000
    Si5806   Si       0.95794    0.00803    0.01900    1.000
    N5807    N        0.94813    0.85799    0.23014    1.000
    N5808    N        0.94633    0.86310    0.16161    1.000
    N5809    N        0.96367    0.79913    0.13603    1.000
    Si5810   Si       0.96878    0.82163    0.21705    1.000
    N5811    N        0.93901    0.79564    0.19693    1.000
    Si5812   Si       0.98148    0.83578    0.14946    1.000
    Si5813   Si       0.95851    0.88547    0.19766    1.000
    N5814    N        0.93894    0.92559    0.20558    1.000
    Si5815   Si       0.95568    0.97952    0.14190    1.000
    N5816    N        0.98942    0.96384    0.16462    1.000
    Si5817   Si       0.98148    0.94521    0.20318    1.000
    N5818    N        0.93579    0.92019    0.13848    1.000
    Si5819   Si       0.94518    0.79536    0.35597    1.000
    Si5820   Si       0.94762    0.86464    0.32733    1.000
    N5821    N        0.94651    0.84060    0.36292    1.000
    N5822    N        0.93775    0.77352    0.31709    1.000
    N5823    N        0.94946    0.90786    0.34373    1.000
    Si5824   Si       0.93903    0.93668    0.30518    1.000
    N5825    N        0.97908    0.95011    0.31109    1.000
    Si5826   Si       0.96142    0.99491    0.25473    1.000
    N5827    N        0.93086    0.90412    0.27494    1.000
    Si5828   Si       0.96108    0.85349    0.40171    1.000
    Si5829   Si       0.94305    0.82600    0.47562    1.000
    N5830    N        0.94545    0.82429    0.43057    1.000
    N5831    N        0.97564    0.80065    0.48745    1.000
    N5832    N        0.94085    0.86750    0.48545    1.000
    Si5833   Si       0.97528    0.76010    0.46967    1.000
    N5834    N        0.94478    0.89130    0.41424    1.000
    Si5835   Si       0.93909    0.00145    0.40040    1.000
    Si5836   Si       0.93976    0.92295    0.38321    1.000
    N5837    N        0.95876    0.96276    0.48785    1.000
    N5838    N        0.95598    0.96307    0.39211    1.000
    Si5839   Si       0.97089    0.00296    0.47097    1.000
    Si5840   Si       0.94740    0.78109    0.52426    1.000
    N5841    N        0.95099    0.86918    0.61285    1.000
    Si5842   Si       0.98131    0.76666    0.58757    1.000
    N5843    N        0.97402    0.79536    0.55592    1.000
    Si5844   Si       0.93918    0.87862    0.52843    1.000
    N5845    N        0.95734    0.78386    0.62123    1.000
    N5846    N        0.97647    0.88749    0.54825    1.000
    N5847    N        0.97955    0.93705    0.59799    1.000
    Si5848   Si       0.98349    0.89244    0.59141    1.000
    Si5849   Si       0.93864    0.94991    0.59649    1.000
    Si5850   Si       0.95772    0.86900    0.65629    1.000
    Si5851   Si       0.98242    0.78538    0.72427    1.000
    N5852    N        0.93884    0.77845    0.73590    1.000
    N5853    N        0.98175    0.77088    0.68312    1.000
    N5854    N        0.98676    0.83794    0.66658    1.000
    Si5855   Si       0.98777    0.79898    0.65011    1.000
    Si5856   Si       0.97057    0.00700    0.70309    1.000
    N5857    N        0.94388    0.91029    0.72572    1.000
    N5858    N        0.97634    0.90614    0.66798    1.000
    N5859    N        0.95276    0.96812    0.69206    1.000
    Si5860   Si       0.97304    0.93212    0.70263    1.000
    Si5861   Si       0.96238    0.79312    0.83265    1.000
    N5862    N        0.95398    0.82272    0.80095    1.000
    N5863    N        0.93451    0.87861    0.84344    1.000
    Si5864   Si       0.94841    0.90237    0.76808    1.000
    N5865    N        0.95639    0.94306    0.78251    1.000
    N5866    N        0.93960    0.99440    0.83967    1.000
    Si5867   Si       0.97131    0.98828    0.87107    1.000
    Si5868   Si       0.92939    0.96808    0.80660    1.000
    Si5869   Si       0.96805    0.87324    0.87324    1.000
    Si5870   Si       0.96701    0.80276    0.96602    1.000
    N5871    N        0.94910    0.83953    0.89233    1.000
    N5872    N        0.96619    0.84638    0.96599    1.000
    N5873    N        0.98433    0.78568    0.92871    1.000
    Si5874   Si       0.98313    0.98638    0.95138    1.000
    N5875    N        0.96457    0.97201    0.91226    1.000
    N5876    N        0.94898    0.99580    0.97731    1.000
    Si5877   Si       0.95509    0.88952    0.97205    1.000
    Si5878   Si       0.94590    0.93234    0.91186    1.000
    N5879    N        0.97729    0.91072    0.89059    1.000
