# CIF file generated by openbabel 3.1.1, see https://openbabel.org
data_I
_chemical_name_common '3.01-8.aims'
_cell_length_a 39.9094
_cell_length_b 39.9094
_cell_length_c 39.9094
_cell_angle_alpha 90
_cell_angle_beta 90
_cell_angle_gamma 90
loop_
    _atom_site_label
    _atom_site_type_symbol
    _atom_site_fract_x
    _atom_site_fract_y
    _atom_site_fract_z
    _atom_site_occupancy
    Si0      Si       0.04522    0.06002    0.02389    1.000
    N1       N        0.02599    0.02574    0.04033    1.000
    Si2      Si       0.04644    0.11827    0.03690    1.000
    N3       N        0.01594    0.09412    0.01580    1.000
    N4       N        0.07123    0.08444    0.04941    1.000
    N5       N        0.15682    0.04578    0.03138    1.000
    Si6      Si       0.18475    0.07877    0.02871    1.000
    N7       N        0.22505    0.06821    0.03451    1.000
    N8       N        0.12473    0.13651    0.00382    1.000
    N9       N        0.10198    0.25000    0.03908    1.000
    Si10     Si       0.00737    0.21621    0.04339    1.000
    N11      N        0.99936    0.17591    0.02801    1.000
    N12      N        0.05601    0.14829    0.00832    1.000
    N13      N        0.99397    0.24033    0.01085    1.000
    Si14     Si       0.09304    0.24565    0.99668    1.000
    Si15     Si       0.14309    0.14449    0.04502    1.000
    N16      N        0.22189    0.24669    0.04623    1.000
    N17      N        0.17890    0.16665    0.02522    1.000
    Si18     Si       0.20664    0.14810    0.05173    1.000
    Si19     Si       0.09471    0.08698    0.08593    1.000
    N20      N        0.11671    0.05184    0.09489    1.000
    N21      N        0.11854    0.12248    0.07854    1.000
    Si22     Si       0.15111    0.03645    0.07415    1.000
    N23      N        0.18414    0.05450    0.09434    1.000
    Si24     Si       0.19979    0.09562    0.09730    1.000
    N25      N        0.18135    0.11114    0.05821    1.000
    Si26     Si       0.22329    0.03645    0.10930    1.000
    N27      N        0.03349    0.13637    0.07283    1.000
    N28      N        0.09531    0.23173    0.09718    1.000
    N29      N        0.03377    0.24061    0.06753    1.000
    Si30     Si       0.01024    0.23058    0.10468    1.000
    Si31     Si       0.99422    0.15681    0.06907    1.000
    Si32     Si       0.05332    0.13482    0.11144    1.000
    Si33     Si       0.07326    0.25885    0.06965    1.000
    Si34     Si       0.12705    0.22566    0.06738    1.000
    N35      N        0.16099    0.24282    0.08442    1.000
    N36      N        0.21222    0.16012    0.09064    1.000
    Si37     Si       0.21005    0.23468    0.09213    1.000
    N38      N        0.12839    0.18321    0.06257    1.000
    Si39     Si       0.12102    0.16130    0.10004    1.000
    Si40     Si       0.06503    0.08098    0.16139    1.000
    N41      N        0.09468    0.04867    0.16367    1.000
    N42      N        0.06930    0.09582    0.12041    1.000
    Si43     Si       0.10888    0.02474    0.13102    1.000
    N44      N        0.02584    0.06132    0.16921    1.000
    Si45     Si       0.02058    0.01777    0.17373    1.000
    N46      N        0.19071    0.11749    0.13335    1.000
    N47      N        0.22641    0.01647    0.14871    1.000
    Si48     Si       0.21655    0.11432    0.17105    1.000
    N49      N        0.08236    0.16763    0.11764    1.000
    N50      N        0.02420    0.13817    0.14477    1.000
    Si51     Si       0.07706    0.20981    0.12824    1.000
    N52      N        0.03660    0.22058    0.13559    1.000
    N53      N        0.10295    0.21210    0.16353    1.000
    Si54     Si       0.19071    0.23362    0.16652    1.000
    Si55     Si       0.19580    0.16469    0.12962    1.000
    N56      N        0.15556    0.25565    0.15175    1.000
    Si57     Si       0.13560    0.18624    0.17082    1.000
    N58      N        0.20286    0.21397    0.13062    1.000
    N59      N        0.15009    0.17022    0.13272    1.000
    N60      N        0.22753    0.15850    0.16153    1.000
    Si61     Si       0.11739    0.25098    0.17397    1.000
    N62      N        0.01718    0.11868    0.20952    1.000
    N63      N        0.07663    0.11555    0.18679    1.000
    Si64     Si       0.10881    0.12151    0.21461    1.000
    Si65     Si       0.99579    0.08741    0.18497    1.000
    Si66     Si       0.10905    0.05051    0.20447    1.000
    N67      N        0.04938    0.00673    0.20510    1.000
    N68      N        0.13505    0.08594    0.21043    1.000
    N69      N        0.13620    0.01977    0.22256    1.000
    Si70     Si       0.17731    0.08333    0.21653    1.000
    Si71     Si       0.21029    0.02471    0.18829    1.000
    N72      N        0.19749    0.06533    0.18309    1.000
    N73      N        0.19213    0.12490    0.20867    1.000
    N74      N        0.99280    0.24482    0.17586    1.000
    N75      N        0.05563    0.25400    0.20066    1.000
    N76      N        0.04243    0.18443    0.19608    1.000
    Si77     Si       0.04261    0.14278    0.18512    1.000
    Si78     Si       0.03030    0.22351    0.17964    1.000
    N79      N        0.17149    0.20138    0.19189    1.000
    Si80     Si       0.17170    0.16319    0.21687    1.000
    N81      N        0.12995    0.15515    0.20045    1.000
    N82      N        0.11970    0.25589    0.21596    1.000
    Si83     Si       0.09747    0.08042    0.26666    1.000
    N84      N        0.00952    0.03562    0.25734    1.000
    Si85     Si       0.04899    0.02886    0.24260    1.000
    Si86     Si       0.00075    0.12768    0.24863    1.000
    N87      N        0.10510    0.12195    0.25828    1.000
    N88      N        0.06346    0.00801    0.27996    1.000
    N89      N        0.01367    0.10084    0.28014    1.000
    Si90     Si       0.99534    0.06247    0.28884    1.000
    N91      N        0.07885    0.05919    0.23448    1.000
    Si92     Si       0.15731    0.03260    0.25802    1.000
    N93      N        0.19059    0.05801    0.24815    1.000
    Si94     Si       0.21591    0.05996    0.28416    1.000
    N95      N        0.13323    0.06085    0.27865    1.000
    Si96     Si       0.07892    0.25230    0.23592    1.000
    N97      N        0.06670    0.21672    0.26048    1.000
    Si98     Si       0.03479    0.19623    0.23867    1.000
    N99      N        0.02305    0.16357    0.26514    1.000
    N100     N        0.99747    0.21924    0.23480    1.000
    N101     N        0.16375    0.16413    0.25848    1.000
    Si102    Si       0.18712    0.18921    0.28581    1.000
    N103     N        0.20670    0.22218    0.26453    1.000
    Si104    Si       0.13308    0.14690    0.28482    1.000
    N105     N        0.02059    0.05603    0.32457    1.000
    Si106    Si       0.06033    0.03667    0.31163    1.000
    Si107    Si       0.04024    0.09811    0.31566    1.000
    N108     N        0.07398    0.07656    0.30184    1.000
    N109     N        0.07896    0.01429    0.34522    1.000
    N110     N        0.18977    0.05831    0.32029    1.000
    Si111    Si       0.15016    0.07819    0.31546    1.000
    N112     N        0.15977    0.12052    0.30883    1.000
    Si113    Si       0.20310    0.12443    0.31821    1.000
    N114     N        0.23112    0.10022    0.29041    1.000
    N115     N        0.03615    0.19407    0.32343    1.000
    Si116    Si       0.07348    0.20435    0.30199    1.000
    Si117    Si       0.00710    0.16562    0.30596    1.000
    N118     N        0.09522    0.23905    0.31877    1.000
    N119     N        0.11007    0.17884    0.30762    1.000
    N120     N        0.21555    0.16434    0.30769    1.000
    Si121    Si       0.12965    0.21242    0.32786    1.000
    N122     N        0.16766    0.21955    0.31110    1.000
    Si123    Si       0.18806    0.25084    0.29041    1.000
    Si124    Si       0.00358    0.04601    0.36271    1.000
    N125     N        0.03002    0.05166    0.39604    1.000
    N126     N        0.08001    0.09835    0.39995    1.000
    N127     N        0.04865    0.12685    0.34541    1.000
    Si128    Si       0.11988    0.09537    0.38353    1.000
    Si129    Si       0.11775    0.02615    0.36279    1.000
    N130     N        0.19506    0.06203    0.39306    1.000
    N131     N        0.21597    0.11053    0.35716    1.000
    Si132    Si       0.19263    0.10929    0.39563    1.000
    Si133    Si       0.21558    0.06625    0.35497    1.000
    N134     N        0.12884    0.06853    0.35149    1.000
    N135     N        0.12539    0.03582    0.40624    1.000
    Si136    Si       0.07392    0.13504    0.37951    1.000
    N137     N        0.06224    0.17568    0.39493    1.000
    Si138    Si       0.03310    0.19436    0.36913    1.000
    N139     N        0.03737    0.23542    0.38143    1.000
    Si140    Si       0.06392    0.25718    0.40523    1.000
    Si141    Si       0.99405    0.24149    0.38282    1.000
    N142     N        0.98914    0.19824    0.37915    1.000
    N143     N        0.18102    0.15253    0.39690    1.000
    Si144    Si       0.14178    0.16744    0.38953    1.000
    N145     N        0.22911    0.23462    0.39299    1.000
    Si146    Si       0.13589    0.23557    0.40209    1.000
    N147     N        0.13898    0.20644    0.36894    1.000
    N148     N        0.11733    0.13707    0.36983    1.000
    N149     N        0.06375    0.04030    0.45144    1.000
    N150     N        0.02261    0.09616    0.44731    1.000
    Si151    Si       0.05331    0.07511    0.42424    1.000
    Si152    Si       0.09994    0.01563    0.43531    1.000
    Si153    Si       0.98514    0.09559    0.42285    1.000
    Si154    Si       0.03511    0.01001    0.41017    1.000
    N155     N        0.22393    0.11715    0.42781    1.000
    N156     N        0.15081    0.09985    0.41723    1.000
    Si157    Si       0.16289    0.05485    0.42171    1.000
    N158     N        0.17517    0.04178    0.46146    1.000
    Si159    Si       0.13753    0.12990    0.44741    1.000
    Si160    Si       0.08215    0.19046    0.43016    1.000
    N161     N        0.09636    0.23145    0.41986    1.000
    N162     N        0.98769    0.19599    0.46583    1.000
    N163     N        0.12113    0.16840    0.42811    1.000
    N164     N        0.22266    0.19186    0.44574    1.000
    Si165    Si       0.20845    0.22991    0.43083    1.000
    N166     N        0.16475    0.22224    0.43131    1.000
    Si167    Si       0.21716    0.15931    0.41856    1.000
    Si168    Si       0.14439    0.19280    0.45734    1.000
    N169     N        0.05300    0.07833    0.50665    1.000
    Si170    Si       0.05542    0.03607    0.49281    1.000
    Si171    Si       0.02138    0.10185    0.48948    1.000
    N172     N        0.01675    0.01975    0.50134    1.000
    Si173    Si       0.09349    0.09790    0.50899    1.000
    N174     N        0.08369    0.01392    0.51486    1.000
    N175     N        0.10759    0.11200    0.47025    1.000
    N176     N        0.17510    0.10222    0.50570    1.000
    Si177    Si       0.19437    0.06465    0.49400    1.000
    N178     N        0.23503    0.07082    0.48118    1.000
    N179     N        0.02495    0.14381    0.49906    1.000
    Si180    Si       0.08694    0.22562    0.49344    1.000
    Si181    Si       0.02417    0.18493    0.48635    1.000
    N182     N        0.01142    0.20949    0.52306    1.000
    N183     N        0.06279    0.19765    0.46857    1.000
    N184     N        0.23615    0.13915    0.49372    1.000
    Si185    Si       0.18972    0.14107    0.49971    1.000
    N186     N        0.12797    0.21114    0.49287    1.000
    N187     N        0.16761    0.15637    0.46684    1.000
    N188     N        0.03158    0.12093    0.56855    1.000
    Si189    Si       0.00596    0.01293    0.54308    1.000
    Si190    Si       0.10575    0.03198    0.54546    1.000
    N191     N        0.02973    0.01343    0.57914    1.000
    Si192    Si       0.10976    0.12621    0.57779    1.000
    Si193    Si       0.00437    0.13178    0.53568    1.000
    N194     N        0.15270    0.10920    0.57699    1.000
    Si195    Si       0.17773    0.01539    0.55711    1.000
    N196     N        0.19235    0.05287    0.53769    1.000
    Si197    Si       0.15936    0.08574    0.54275    1.000
    N198     N        0.12050    0.07099    0.52921    1.000
    Si199    Si       0.23450    0.05734    0.55202    1.000
    N200     N        0.09914    0.13113    0.53707    1.000
    N201     N        0.08710    0.22127    0.53755    1.000
    Si202    Si       0.06347    0.23150    0.57144    1.000
    Si203    Si       0.00574    0.19501    0.56340    1.000
    N204     N        0.19791    0.15643    0.53905    1.000
    N205     N        0.14999    0.20172    0.57019    1.000
    Si206    Si       0.19012    0.18328    0.57106    1.000
    N207     N        0.21725    0.21704    0.57363    1.000
    Si208    Si       0.13188    0.22363    0.53564    1.000
    N209     N        0.09036    0.09640    0.60100    1.000
    Si210    Si       0.04774    0.10593    0.60488    1.000
    N211     N        0.02894    0.06635    0.60821    1.000
    Si212    Si       0.05936    0.03303    0.60520    1.000
    Si213    Si       0.99598    0.03773    0.60105    1.000
    Si214    Si       0.11022    0.08886    0.64057    1.000
    N215     N        0.09888    0.02741    0.58822    1.000
    Si216    Si       0.17443    0.11999    0.61262    1.000
    Si217    Si       0.13227    0.02121    0.61724    1.000
    Si218    Si       0.20529    0.04822    0.61298    1.000
    N219     N        0.20539    0.08872    0.62507    1.000
    N220     N        0.16962    0.03559    0.59538    1.000
    N221     N        0.14203    0.11920    0.64288    1.000
    Si222    Si       0.06090    0.17550    0.62013    1.000
    N223     N        0.03935    0.14040    0.63231    1.000
    N224     N        0.09746    0.16281    0.59908    1.000
    N225     N        0.09658    0.23151    0.59860    1.000
    N226     N        0.04092    0.19758    0.58758    1.000
    Si227    Si       0.12093    0.19799    0.60173    1.000
    N228     N        0.18982    0.16018    0.60910    1.000
    Si229    Si       0.21660    0.23888    0.61137    1.000
    N230     N        0.13622    0.19717    0.64250    1.000
    N231     N        0.00673    0.10751    0.68350    1.000
    Si232    Si       0.08653    0.04208    0.67265    1.000
    N233     N        0.07724    0.08568    0.67041    1.000
    Si234    Si       0.04888    0.10491    0.69803    1.000
    N235     N        0.06014    0.01760    0.64479    1.000
    Si236    Si       0.15984    0.12292    0.68408    1.000
    N237     N        0.16727    0.08024    0.68864    1.000
    N238     N        0.20412    0.02107    0.64970    1.000
    N239     N        0.12041    0.04719    0.64657    1.000
    Si240    Si       0.23629    0.03119    0.67544    1.000
    N241     N        0.23799    0.11255    0.68482    1.000
    Si242    Si       0.00484    0.14170    0.65626    1.000
    Si243    Si       0.10846    0.20945    0.67110    1.000
    N244     N        0.06987    0.19458    0.65845    1.000
    N245     N        0.00625    0.17803    0.67809    1.000
    Si246    Si       0.04642    0.18325    0.69341    1.000
    N247     N        0.10994    0.25203    0.66707    1.000
    Si248    Si       0.17811    0.18115    0.64432    1.000
    Si249    Si       0.19712    0.24268    0.68605    1.000
    N250     N        0.18566    0.15579    0.67976    1.000
    N251     N        0.19793    0.21812    0.64623    1.000
    Si252    Si       0.22840    0.15468    0.68808    1.000
    N253     N        0.04330    0.08538    0.73686    1.000
    Si254    Si       0.06031    0.04444    0.74579    1.000
    N255     N        0.07970    0.02633    0.71128    1.000
    N256     N        0.02810    0.01460    0.74789    1.000
    Si257    Si       0.17467    0.04479    0.70975    1.000
    N258     N        0.19432    0.11582    0.73634    1.000
    Si259    Si       0.15426    0.10062    0.74471    1.000
    N260     N        0.15018    0.05821    0.74662    1.000
    Si261    Si       0.22636    0.09058    0.71877    1.000
    N262     N        0.13169    0.12450    0.71799    1.000
    N263     N        0.21924    0.04740    0.71065    1.000
    Si264    Si       0.10086    0.15116    0.72545    1.000
    N265     N        0.04759    0.20608    0.72977    1.000
    Si266    Si       0.01177    0.23308    0.73254    1.000
    N267     N        0.06280    0.14469    0.70536    1.000
    N268     N        0.23190    0.17248    0.72884    1.000
    N269     N        0.17503    0.23548    0.72445    1.000
    Si270    Si       0.20320    0.15453    0.75587    1.000
    Si271    Si       0.19467    0.25313    0.75917    1.000
    N272     N        0.11633    0.18975    0.70990    1.000
    Si273    Si       0.14338    0.20802    0.73940    1.000
    N274     N        0.02748    0.08183    0.80076    1.000
    N275     N        0.08938    0.05241    0.77912    1.000
    Si276    Si       0.06860    0.07465    0.81329    1.000
    Si277    Si       0.01234    0.10232    0.76484    1.000
    N278     N        0.99321    0.13343    0.79281    1.000
    N279     N        0.21045    0.06190    0.80108    1.000
    N280     N        0.14728    0.11079    0.78741    1.000
    Si281    Si       0.13164    0.04090    0.78064    1.000
    Si282    Si       0.17409    0.08540    0.81237    1.000
    N283     N        0.98672    0.22012    0.76611    1.000
    N284     N        0.09468    0.16227    0.76717    1.000
    N285     N        0.05669    0.21827    0.79935    1.000
    Si286    Si       0.01154    0.22741    0.80181    1.000
    Si287    Si       0.07623    0.20324    0.76375    1.000
    N288     N        0.11121    0.22841    0.76320    1.000
    N289     N        0.16782    0.25307    0.79138    1.000
    N290     N        0.21175    0.15183    0.79811    1.000
    Si291    Si       0.11639    0.13852    0.80015    1.000
    Si292    Si       0.17707    0.18057    0.80792    1.000
    N293     N        0.16916    0.18261    0.76350    1.000
    N294     N        0.23268    0.23435    0.76712    1.000
    N295     N        0.07336    0.05088    0.84970    1.000
    Si296    Si       0.00183    0.10552    0.82799    1.000
    Si297    Si       0.06554    0.12997    0.85818    1.000
    N298     N        0.08749    0.11349    0.82291    1.000
    N299     N        0.18381    0.09732    0.85368    1.000
    Si300    Si       0.14544    0.03277    0.85824    1.000
    Si301    Si       0.21595    0.03232    0.83602    1.000
    N302     N        0.18526    0.01708    0.86358    1.000
    N303     N        0.14617    0.05406    0.81947    1.000
    N304     N        0.02256    0.13321    0.85427    1.000
    N305     N        0.99494    0.20700    0.83821    1.000
    N306     N        0.07786    0.16964    0.86489    1.000
    Si307    Si       0.08339    0.23788    0.83065    1.000
    Si308    Si       0.99451    0.16716    0.85952    1.000
    N309     N        0.05555    0.25313    0.86006    1.000
    Si310    Si       0.22698    0.19862    0.86744    1.000
    Si311    Si       0.19022    0.25013    0.82882    1.000
    N312     N        0.23825    0.15814    0.85793    1.000
    N313     N        0.13741    0.16841    0.82368    1.000
    N314     N        0.11553    0.22379    0.85619    1.000
    Si315    Si       0.11805    0.18167    0.86050    1.000
    N316     N        0.19851    0.20726    0.83440    1.000
    N317     N        0.06190    0.04645    0.92383    1.000
    N318     N        0.07964    0.10922    0.89312    1.000
    Si319    Si       0.08211    0.06430    0.89026    1.000
    N320     N        0.00953    0.02993    0.88968    1.000
    Si321    Si       0.01581    0.03427    0.93390    1.000
    N322     N        0.18838    0.07094    0.92342    1.000
    N323     N        0.12616    0.05404    0.89090    1.000
    Si324    Si       0.14449    0.06717    0.92688    1.000
    Si325    Si       0.21000    0.08264    0.88649    1.000
    Si326    Si       0.10767    0.13635    0.91530    1.000
    N327     N        0.07335    0.23168    0.92136    1.000
    N328     N        0.98917    0.17960    0.90075    1.000
    N329     N        0.13580    0.16269    0.89594    1.000
    N330     N        0.20587    0.19594    0.90552    1.000
    N331     N        0.14468    0.22563    0.92172    1.000
    Si332    Si       0.13637    0.24727    0.88461    1.000
    Si333    Si       0.16446    0.18734    0.91887    1.000
    Si334    Si       0.08724    0.03160    0.95688    1.000
    N335     N        0.99926    0.06810    0.95535    1.000
    Si336    Si       0.99112    0.10177    0.98313    1.000
    N337     N        0.06969    0.04658    0.99223    1.000
    N338     N        0.13028    0.04212    0.95923    1.000
    Si339    Si       0.20700    0.07126    0.96317    1.000
    N340     N        0.19779    0.03138    0.97782    1.000
    Si341    Si       0.15256    0.12743    0.97125    1.000
    N342     N        0.17886    0.09684    0.98758    1.000
    Si343    Si       0.15690    0.02618    0.99135    1.000
    N344     N        0.13191    0.10695    0.93851    1.000
    N345     N        0.99584    0.13938    0.96592    1.000
    N346     N        0.03254    0.20020    0.96797    1.000
    Si347    Si       0.01755    0.24030    0.97541    1.000
    N348     N        0.10062    0.20566    0.98477    1.000
    Si349    Si       0.09445    0.16262    0.98945    1.000
    Si350    Si       0.07357    0.19999    0.94793    1.000
    Si351    Si       0.02047    0.16589    0.99102    1.000
    N352     N        0.08751    0.15982    0.94619    1.000
    N353     N        0.99542    0.25147    0.93918    1.000
    Si354    Si       0.15125    0.25254    0.95559    1.000
    N355     N        0.17691    0.23634    0.98801    1.000
    Si356    Si       0.18460    0.19128    0.98827    1.000
    N357     N        0.22655    0.18894    0.97852    1.000
    N358     N        0.16794    0.16648    0.95765    1.000
    Si359    Si       0.23703    0.19773    0.93751    1.000
    N360     N        0.04031    0.32150    0.02936    1.000
    Si361    Si       0.00265    0.32474    0.05060    1.000
    Si362    Si       0.07784    0.33225    0.05201    1.000
    N363     N        0.11565    0.32433    0.02960    1.000
    Si364    Si       0.15821    0.33265    0.03046    1.000
    N365     N        0.18858    0.30256    0.03616    1.000
    N366     N        0.17106    0.37302    0.03706    1.000
    Si367    Si       0.19985    0.26555    0.01344    1.000
    Si368    Si       0.08987    0.41199    0.05139    1.000
    N369     N        0.09531    0.49550    0.03372    1.000
    N370     N        0.02104    0.46539    0.04152    1.000
    N371     N        0.06981    0.42198    0.01288    1.000
    Si372    Si       0.03386    0.44588    0.00632    1.000
    Si373    Si       0.15673    0.41365    0.02461    1.000
    N374     N        0.17595    0.44692    0.00258    1.000
    Si375    Si       0.21603    0.45755    0.00520    1.000
    N376     N        0.22623    0.47441    0.04394    1.000
    N377     N        0.13134    0.42712    0.05711    1.000
    N378     N        0.07479    0.29952    0.08331    1.000
    N379     N        0.01920    0.33670    0.08952    1.000
    N380     N        0.08087    0.37490    0.06991    1.000
    Si381    Si       0.00626    0.37626    0.09998    1.000
    Si382    Si       0.21767    0.30378    0.07126    1.000
    N383     N        0.20504    0.34358    0.08733    1.000
    N384     N        0.20940    0.27659    0.10403    1.000
    Si385    Si       0.20970    0.37584    0.05895    1.000
    Si386    Si       0.16717    0.27349    0.11475    1.000
    Si387    Si       0.07331    0.38657    0.11120    1.000
    N388     N        0.00181    0.46089    0.10426    1.000
    Si389    Si       0.02472    0.43490    0.08199    1.000
    N390     N        0.06692    0.44157    0.07530    1.000
    N391     N        0.00260    0.40097    0.06331    1.000
    Si392    Si       0.06235    0.48043    0.05521    1.000
    Si393    Si       0.12558    0.50714    0.06269    1.000
    Si394    Si       0.13049    0.44283    0.09706    1.000
    N395     N        0.21386    0.41469    0.07866    1.000
    N396     N        0.11741    0.48353    0.09769    1.000
    Si397    Si       0.24467    0.44635    0.07187    1.000
    N398     N        0.03062    0.29269    0.14591    1.000
    N399     N        0.06640    0.34998    0.13619    1.000
    N400     N        0.09880    0.28856    0.16048    1.000
    Si401    Si       0.98954    0.27990    0.14864    1.000
    Si402    Si       0.04751    0.31805    0.11459    1.000
    Si403    Si       0.13300    0.31555    0.16264    1.000
    N404     N        0.21634    0.33748    0.16356    1.000
    Si405    Si       0.18917    0.34343    0.12782    1.000
    N406     N        0.15605    0.31539    0.12762    1.000
    N407     N        0.12236    0.35760    0.17340    1.000
    N408     N        0.17360    0.38279    0.13540    1.000
    N409     N        0.03506    0.40649    0.11842    1.000
    N410     N        0.05960    0.46931    0.13985    1.000
    Si411    Si       0.04320    0.43062    0.15551    1.000
    Si412    Si       0.09878    0.49150    0.13726    1.000
    Si413    Si       0.02815    0.49317    0.11746    1.000
    N414     N        0.10892    0.41075    0.11991    1.000
    N415     N        0.20455    0.50196    0.15362    1.000
    Si416    Si       0.23678    0.50472    0.12384    1.000
    Si417    Si       0.13466    0.39382    0.15169    1.000
    Si418    Si       0.17575    0.47026    0.15509    1.000
    N419     N        0.13713    0.49044    0.16437    1.000
    Si420    Si       0.20009    0.41342    0.12144    1.000
    N421     N        0.16941    0.44595    0.11950    1.000
    N422     N        0.23898    0.40221    0.13842    1.000
    N423     N        0.06533    0.32623    0.20399    1.000
    Si424    Si       0.05888    0.29060    0.17778    1.000
    Si425    Si       0.07835    0.35830    0.17794    1.000
    N426     N        0.09585    0.37417    0.22849    1.000
    N427     N        0.15797    0.31134    0.19916    1.000
    Si428    Si       0.20014    0.31105    0.19590    1.000
    Si429    Si       0.13563    0.35361    0.21658    1.000
    N430     N        0.20962    0.26879    0.18616    1.000
    N431     N        0.17147    0.37598    0.22491    1.000
    N432     N        0.21874    0.32513    0.23192    1.000
    Si433    Si       0.14188    0.28771    0.23267    1.000
    Si434    Si       0.09843    0.40990    0.20804    1.000
    N435     N        0.01950    0.44805    0.18952    1.000
    N436     N        0.06979    0.40217    0.17615    1.000
    Si437    Si       0.04113    0.44267    0.23022    1.000
    Si438    Si       0.99528    0.47360    0.21541    1.000
    N439     N        0.08323    0.44497    0.22906    1.000
    Si440    Si       0.23188    0.45437    0.20988    1.000
    N441     N        0.19938    0.44132    0.17956    1.000
    N442     N        0.22218    0.49810    0.21931    1.000
    Si443    Si       0.17624    0.41699    0.20771    1.000
    N444     N        0.13611    0.41832    0.18832    1.000
    N445     N        0.08140    0.28577    0.26336    1.000
    N446     N        0.04780    0.34472    0.27005    1.000
    N447     N        0.00461    0.29480    0.25491    1.000
    Si448    Si       0.08151    0.33099    0.24566    1.000
    N449     N        0.18209    0.34838    0.29135    1.000
    N450     N        0.12674    0.32571    0.25007    1.000
    N451     N        0.16350    0.27977    0.27013    1.000
    Si452    Si       0.20213    0.35757    0.25417    1.000
    Si453    Si       0.14881    0.31879    0.28729    1.000
    N454     N        0.23671    0.38179    0.26664    1.000
    Si455    Si       0.04503    0.38639    0.27881    1.000
    Si456    Si       0.03477    0.49072    0.28295    1.000
    N457     N        0.02577    0.40534    0.24482    1.000
    Si458    Si       0.10534    0.46702    0.25951    1.000
    N459     N        0.03142    0.48444    0.24082    1.000
    N460     N        0.07915    0.48779    0.28787    1.000
    N461     N        0.13015    0.44214    0.28580    1.000
    N462     N        0.19440    0.43761    0.24118    1.000
    Si463    Si       0.16602    0.45911    0.26545    1.000
    N464     N        0.19647    0.48314    0.28624    1.000
    N465     N        0.14058    0.48271    0.23677    1.000
    Si466    Si       0.22615    0.42498    0.27290    1.000
    N467     N        0.05073    0.29391    0.31798    1.000
    Si468    Si       0.08987    0.28054    0.30572    1.000
    N469     N        0.99052    0.32384    0.31280    1.000
    Si470    Si       0.02693    0.31133    0.28717    1.000
    N471     N        0.11842    0.31638    0.31869    1.000
    N472     N        0.21471    0.26944    0.31846    1.000
    Si473    Si       0.17868    0.38144    0.32102    1.000
    Si474    Si       0.11867    0.35068    0.34652    1.000
    N475     N        0.01196    0.38841    0.30957    1.000
    N476     N        0.07086    0.41015    0.30429    1.000
    Si477    Si       0.09833    0.49022    0.32811    1.000
    Si478    Si       0.03439    0.42152    0.32598    1.000
    N479     N        0.01963    0.45646    0.30583    1.000
    Si480    Si       0.11103    0.41969    0.31882    1.000
    N481     N        0.10295    0.45261    0.34792    1.000
    N482     N        0.19289    0.42005    0.30477    1.000
    Si483    Si       0.20590    0.45765    0.32042    1.000
    N484     N        0.13453    0.38672    0.32907    1.000
    N485     N        0.07923    0.28977    0.38208    1.000
    N486     N        0.01429    0.31905    0.37342    1.000
    Si487    Si       0.05267    0.31455    0.35699    1.000
    N488     N        0.07261    0.35392    0.35719    1.000
    Si489    Si       0.11366    0.30555    0.39649    1.000
    Si490    Si       0.22468    0.26878    0.36462    1.000
    N491     N        0.14740    0.27675    0.39248    1.000
    N492     N        0.20870    0.30831    0.37615    1.000
    N493     N        0.13914    0.34096    0.38602    1.000
    Si494    Si       0.17145    0.31216    0.39543    1.000
    Si495    Si       0.23569    0.33691    0.35535    1.000
    N496     N        0.20585    0.37280    0.35429    1.000
    Si497    Si       0.06379    0.38665    0.38637    1.000
    N498     N        0.10503    0.39954    0.39656    1.000
    Si499    Si       0.10204    0.44338    0.39028    1.000
    N500     N        0.03411    0.41423    0.36731    1.000
    Si501    Si       0.99246    0.41790    0.38570    1.000
    N502     N        0.17164    0.40884    0.40328    1.000
    N503     N        0.18791    0.47745    0.35607    1.000
    N504     N        0.23332    0.43057    0.36866    1.000
    Si505    Si       0.21188    0.39928    0.38990    1.000
    Si506    Si       0.22203    0.47024    0.38324    1.000
    N507     N        0.04588    0.27651    0.44265    1.000
    Si508    Si       0.00276    0.28530    0.44727    1.000
    N509     N        0.04100    0.37071    0.41974    1.000
    N510     N        0.99928    0.32829    0.44122    1.000
    N511     N        0.10619    0.31134    0.43844    1.000
    Si512    Si       0.02959    0.35591    0.45878    1.000
    Si513    Si       0.00418    0.34905    0.40312    1.000
    N514     N        0.22063    0.26056    0.45959    1.000
    N515     N        0.17601    0.31525    0.43903    1.000
    N516     N        0.13983    0.37035    0.45356    1.000
    Si517    Si       0.14010    0.32808    0.46045    1.000
    Si518    Si       0.21036    0.30300    0.46200    1.000
    Si519    Si       0.14135    0.37858    0.41067    1.000
    N520     N        0.03431    0.49281    0.46088    1.000
    Si521    Si       0.03354    0.45215    0.43760    1.000
    N522     N        0.99511    0.44262    0.42136    1.000
    N523     N        0.06601    0.45655    0.41194    1.000
    Si524    Si       0.10904    0.49498    0.43774    1.000
    N525     N        0.13157    0.46515    0.41257    1.000
    N526     N        0.23366    0.38809    0.42552    1.000
    N527     N        0.20675    0.46766    0.42351    1.000
    Si528    Si       0.22607    0.50248    0.44355    1.000
    Si529    Si       0.16833    0.44669    0.42509    1.000
    N530     N        0.08865    0.26999    0.49664    1.000
    N531     N        0.05838    0.33355    0.48228    1.000
    N532     N        0.00600    0.37868    0.48841    1.000
    N533     N        0.99421    0.26979    0.48675    1.000
    Si534    Si       0.07426    0.29816    0.46597    1.000
    N535     N        0.13679    0.32100    0.50295    1.000
    N536     N        0.20604    0.31556    0.50162    1.000
    N537     N        0.17714    0.37873    0.51562    1.000
    Si538    Si       0.17450    0.33649    0.52298    1.000
    Si539    Si       0.06148    0.46722    0.48707    1.000
    Si540    Si       0.02692    0.41095    0.50793    1.000
    N541     N        0.04385    0.43065    0.47201    1.000
    N542     N        0.10040    0.47393    0.47274    1.000
    N543     N        0.14942    0.48801    0.51551    1.000
    N544     N        0.20965    0.49507    0.48310    1.000
    N545     N        0.11936    0.41962    0.51076    1.000
    N546     N        0.16474    0.43750    0.47061    1.000
    Si547    Si       0.13346    0.45639    0.49305    1.000
    Si548    Si       0.14982    0.39609    0.48860    1.000
    Si549    Si       0.20208    0.45259    0.48848    1.000
    N550     N        0.08207    0.31440    0.54761    1.000
    N551     N        0.02064    0.32221    0.53888    1.000
    Si552    Si       0.04524    0.30653    0.57149    1.000
    N553     N        0.03589    0.26468    0.57655    1.000
    Si554    Si       0.11224    0.29161    0.52551    1.000
    Si555    Si       0.05808    0.34391    0.52485    1.000
    N556     N        0.16860    0.32852    0.56544    1.000
    N557     N        0.14142    0.26567    0.54673    1.000
    Si558    Si       0.16397    0.28691    0.57821    1.000
    Si559    Si       0.04460    0.48811    0.55589    1.000
    Si560    Si       0.08728    0.42279    0.53784    1.000
    N561     N        0.09867    0.42509    0.57991    1.000
    N562     N        0.99902    0.42927    0.53876    1.000
    N563     N        0.06234    0.45701    0.52840    1.000
    N564     N        0.06159    0.38712    0.52910    1.000
    Si565    Si       0.99623    0.43573    0.58297    1.000
    Si566    Si       0.19565    0.40379    0.54545    1.000
    N567     N        0.19434    0.44378    0.53121    1.000
    Si568    Si       0.17581    0.47828    0.54905    1.000
    N569     N        0.17872    0.39543    0.58556    1.000
    N570     N        0.03043    0.33045    0.60563    1.000
    Si571    Si       0.99469    0.35763    0.61300    1.000
    Si572    Si       0.10519    0.26464    0.62544    1.000
    Si573    Si       0.99353    0.26356    0.58862    1.000
    N574     N        0.07540    0.29469    0.63798    1.000
    N575     N        0.11763    0.36462    0.60834    1.000
    N576     N        0.17986    0.33906    0.63114    1.000
    Si577    Si       0.21646    0.32281    0.60160    1.000
    N578     N        0.14169    0.28394    0.61465    1.000
    Si579    Si       0.15809    0.35781    0.59693    1.000
    N580     N        0.20303    0.27933    0.59758    1.000
    N581     N        0.23395    0.37052    0.60425    1.000
    N582     N        0.99696    0.39946    0.60628    1.000
    N583     N        0.08870    0.48437    0.61525    1.000
    Si584    Si       0.05711    0.45634    0.62341    1.000
    Si585    Si       0.09756    0.40219    0.61726    1.000
    N586     N        0.05885    0.41327    0.63380    1.000
    N587     N        0.03026    0.46351    0.59028    1.000
    Si588    Si       0.12040    0.45704    0.59991    1.000
    N589     N        0.15094    0.48161    0.58483    1.000
    N590     N        0.12423    0.43406    0.63584    1.000
    Si591    Si       0.21377    0.40760    0.61010    1.000
    N592     N        0.23287    0.44644    0.60644    1.000
    N593     N        0.02434    0.29884    0.67636    1.000
    N594     N        0.07023    0.34964    0.67382    1.000
    N595     N        0.01058    0.36213    0.65573    1.000
    Si596    Si       0.09558    0.29076    0.68019    1.000
    Si597    Si       0.03397    0.36705    0.69324    1.000
    Si598    Si       0.11146    0.35598    0.68604    1.000
    Si599    Si       0.04552    0.32469    0.64635    1.000
    N600     N        0.13007    0.31775    0.67517    1.000
    N601     N        0.19203    0.28392    0.67016    1.000
    Si602    Si       0.22293    0.31328    0.67235    1.000
    Si603    Si       0.18007    0.37042    0.66351    1.000
    N604     N        0.20546    0.35125    0.69194    1.000
    Si605    Si       0.15960    0.30364    0.64788    1.000
    N606     N        0.14175    0.38409    0.67425    1.000
    N607     N        0.04617    0.47035    0.66414    1.000
    N608     N        0.03061    0.40991    0.69630    1.000
    Si609    Si       0.05733    0.44400    0.69746    1.000
    Si610    Si       0.01584    0.40734    0.64981    1.000
    N611     N        0.09851    0.42568    0.70137    1.000
    Si612    Si       0.13486    0.42592    0.67673    1.000
    N613     N        0.20195    0.40536    0.65186    1.000
    N614     N        0.16899    0.44549    0.69415    1.000
    Si615    Si       0.20940    0.43102    0.68818    1.000
    N616     N        0.02275    0.34353    0.72663    1.000
    N617     N        0.08166    0.29787    0.71937    1.000
    Si618    Si       0.03775    0.30408    0.71709    1.000
    Si619    Si       0.10115    0.32507    0.74732    1.000
    N620     N        0.02255    0.27333    0.74163    1.000
    N621     N        0.10702    0.36355    0.72818    1.000
    Si622    Si       0.98877    0.35053    0.75482    1.000
    Si623    Si       0.20927    0.37108    0.73029    1.000
    N624     N        0.20159    0.29755    0.74943    1.000
    Si625    Si       0.09554    0.50144    0.72584    1.000
    Si626    Si       0.09901    0.40393    0.73936    1.000
    N627     N        0.00308    0.44901    0.74031    1.000
    N628     N        0.06389    0.47232    0.73104    1.000
    N629     N        0.05897    0.40961    0.75829    1.000
    N630     N        0.13648    0.49539    0.73715    1.000
    Si631    Si       0.22091    0.49708    0.75734    1.000
    N632     N        0.20945    0.49346    0.71649    1.000
    N633     N        0.22099    0.41485    0.72729    1.000
    Si634    Si       0.16680    0.48644    0.70612    1.000
    N635     N        0.07550    0.33658    0.78046    1.000
    N636     N        0.01198    0.36020    0.78982    1.000
    N637     N        0.09617    0.27389    0.81241    1.000
    Si638    Si       0.05231    0.37238    0.78311    1.000
    N639     N        0.00724    0.26820    0.81233    1.000
    Si640    Si       0.07965    0.31426    0.81667    1.000
    Si641    Si       0.17413    0.32421    0.77241    1.000
    Si642    Si       0.12758    0.26478    0.77964    1.000
    N643     N        0.18354    0.32492    0.81414    1.000
    N644     N        0.13578    0.30650    0.76450    1.000
    N645     N        0.17904    0.36721    0.76141    1.000
    N646     N        0.06063    0.48542    0.79015    1.000
    N647     N        0.02104    0.43878    0.80996    1.000
    Si648    Si       0.10774    0.40503    0.81077    1.000
    Si649    Si       0.09219    0.48331    0.82030    1.000
    Si650    Si       0.04277    0.45157    0.76692    1.000
    N651     N        0.19749    0.43348    0.78934    1.000
    Si652    Si       0.23364    0.43022    0.76605    1.000
    Si653    Si       0.16790    0.40259    0.78494    1.000
    N654     N        0.12741    0.41310    0.77117    1.000
    Si655    Si       0.19568    0.46891    0.81602    1.000
    N656     N        0.18676    0.49883    0.78460    1.000
    Si657    Si       0.02439    0.28227    0.85010    1.000
    N658     N        0.04199    0.31989    0.83833    1.000
    Si659    Si       0.00994    0.34770    0.83114    1.000
    N660     N        0.99166    0.27035    0.87548    1.000
    N661     N        0.11285    0.33338    0.83814    1.000
    N662     N        0.00869    0.38588    0.85451    1.000
    Si663    Si       0.22099    0.31203    0.83174    1.000
    Si664    Si       0.15373    0.34659    0.83717    1.000
    N665     N        0.16976    0.26559    0.86388    1.000
    N666     N        0.22958    0.26936    0.82221    1.000
    Si667    Si       0.03920    0.41330    0.84060    1.000
    N668     N        0.06561    0.48773    0.85553    1.000
    Si669    Si       0.09602    0.44208    0.87211    1.000
    N670     N        0.10589    0.44370    0.82977    1.000
    N671     N        0.99158    0.50308    0.82532    1.000
    N672     N        0.06960    0.38905    0.81986    1.000
    N673     N        0.15141    0.38837    0.82405    1.000
    Si674    Si       0.16031    0.41521    0.85931    1.000
    N675     N        0.17103    0.45796    0.85106    1.000
    N676     N        0.22833    0.49409    0.83153    1.000
    N677     N        0.04209    0.29795    0.91257    1.000
    N678     N        0.09146    0.35023    0.90521    1.000
    Si679    Si       0.99885    0.28833    0.91646    1.000
    Si680    Si       0.06938    0.26566    0.89880    1.000
    Si681    Si       0.05902    0.33530    0.92798    1.000
    N682     N        0.02996    0.36702    0.92787    1.000
    N683     N        0.11077    0.28366    0.89227    1.000
    Si684    Si       0.17898    0.36725    0.90650    1.000
    Si685    Si       0.18117    0.29825    0.89110    1.000
    N686     N        0.20298    0.34188    0.93090    1.000
    N687     N        0.17131    0.28554    0.93222    1.000
    N688     N        0.15915    0.33692    0.88042    1.000
    Si689    Si       0.11658    0.32401    0.87998    1.000
    N690     N        0.14720    0.37741    0.93386    1.000
    N691     N        0.22187    0.31097    0.87636    1.000
    Si692    Si       0.04379    0.40814    0.92076    1.000
    Si693    Si       0.11040    0.38852    0.91576    1.000
    Si694    Si       0.08400    0.50672    0.89075    1.000
    N695     N        0.05951    0.42111    0.88036    1.000
    N696     N        0.11507    0.47446    0.89381    1.000
    Si697    Si       0.23465    0.40580    0.88723    1.000
    Si698    Si       0.15855    0.48006    0.89058    1.000
    N699     N        0.17306    0.46260    0.92942    1.000
    N700     N        0.23014    0.49032    0.90057    1.000
    N701     N        0.19272    0.39768    0.88137    1.000
    N702     N        0.12407    0.41073    0.88257    1.000
    Si703    Si       0.21588    0.46565    0.93107    1.000
    N704     N        0.07844    0.32358    0.96670    1.000
    N705     N        0.00773    0.31803    0.97150    1.000
    Si706    Si       0.04514    0.30557    0.98933    1.000
    N707     N        0.05405    0.26187    0.98824    1.000
    Si708    Si       0.11493    0.31432    0.98736    1.000
    N709     N        0.12175    0.27253    0.97854    1.000
    N710     N        0.15638    0.33186    0.98257    1.000
    Si711    Si       0.18897    0.31276    0.96053    1.000
    N712     N        0.22097    0.28517    0.97937    1.000
    Si713    Si       0.16051    0.37519    0.97507    1.000
    N714     N        0.99560    0.50827    0.94657    1.000
    Si715    Si       0.09629    0.42548    0.97891    1.000
    N716     N        0.04728    0.48100    0.98629    1.000
    Si717    Si       0.03182    0.48198    0.94510    1.000
    N718     N        0.00191    0.41925    0.99453    1.000
    N719     N        0.08207    0.41008    0.94185    1.000
    N720     N        0.02013    0.44112    0.93446    1.000
    Si721    Si       0.08903    0.49552    0.99137    1.000
    N722     N        0.20048    0.38513    0.98167    1.000
    N723     N        0.22712    0.48467    0.97100    1.000
    N724     N        0.11371    0.46647    0.97335    1.000
    Si725    Si       0.15715    0.47023    0.96820    1.000
    N726     N        0.13015    0.40024    0.99249    1.000
    N727     N        0.02181    0.55215    0.02367    1.000
    N728     N        0.07805    0.58266    0.01781    1.000
    Si729    Si       0.03612    0.59425    0.02230    1.000
    N730     N        0.02979    0.62913    0.04955    1.000
    Si731    Si       0.11589    0.57805    0.03946    1.000
    N732     N        0.14711    0.57201    0.00851    1.000
    Si733    Si       0.19080    0.57908    0.01108    1.000
    N734     N        0.21005    0.54007    0.01661    1.000
    N735     N        0.20407    0.60723    0.04095    1.000
    Si736    Si       0.20896    0.51319    0.05269    1.000
    Si737    Si       0.04356    0.73977    0.03694    1.000
    N738     N        0.08788    0.65278    0.02432    1.000
    N739     N        0.04652    0.70306    0.01392    1.000
    Si740    Si       0.05014    0.66716    0.03914    1.000
    N741     N        0.17975    0.73258    0.99775    1.000
    N742     N        0.11877    0.70759    0.00035    1.000
    Si743    Si       0.18315    0.68886    0.00646    1.000
    Si744    Si       0.20771    0.74020    0.03124    1.000
    N745     N        0.15872    0.65693    0.02223    1.000
    Si746    Si       0.12305    0.67699    0.03358    1.000
    N747     N        0.20937    0.69769    0.04008    1.000
    N748     N        0.04276    0.57480    0.08548    1.000
    Si749    Si       0.03048    0.61549    0.09287    1.000
    Si750    Si       0.02145    0.54236    0.06566    1.000
    Si751    Si       0.07548    0.54733    0.09718    1.000
    N752     N        0.11160    0.54908    0.07421    1.000
    N753     N        0.04942    0.51174    0.08282    1.000
    Si754    Si       0.13454    0.57774    0.09864    1.000
    N755     N        0.22798    0.52878    0.08763    1.000
    N756     N        0.13906    0.60447    0.06530    1.000
    N757     N        0.16697    0.50721    0.05814    1.000
    Si758    Si       0.17142    0.63123    0.05562    1.000
    Si759    Si       0.00916    0.69837    0.08624    1.000
    Si760    Si       0.08651    0.70766    0.08442    1.000
    N761     N        0.05091    0.68410    0.07844    1.000
    N762     N        0.01115    0.73653    0.06678    1.000
    N763     N        0.08105    0.74173    0.05884    1.000
    N764     N        0.23224    0.71266    0.10510    1.000
    N765     N        0.18951    0.75766    0.06885    1.000
    N766     N        0.12149    0.68634    0.07540    1.000
    N767     N        0.18452    0.65964    0.08771    1.000
    Si768    Si       0.19898    0.74112    0.10776    1.000
    Si769    Si       0.22123    0.67788    0.07676    1.000
    Si770    Si       0.15163    0.67845    0.10753    1.000
    N771     N        0.08334    0.53169    0.13646    1.000
    Si772    Si       0.07931    0.62011    0.15601    1.000
    N773     N        0.99871    0.52236    0.13145    1.000
    N774     N        0.10991    0.59937    0.12825    1.000
    Si775    Si       0.20591    0.58610    0.14455    1.000
    Si776    Si       0.14403    0.61496    0.15031    1.000
    N777     N        0.16894    0.57612    0.12431    1.000
    N778     N        0.18560    0.61702    0.16648    1.000
    N779     N        0.24035    0.59538    0.11686    1.000
    N780     N        0.04962    0.63368    0.12459    1.000
    N781     N        0.07601    0.71566    0.12436    1.000
    N782     N        0.01200    0.69669    0.12987    1.000
    Si783    Si       0.09244    0.74076    0.15390    1.000
    Si784    Si       0.05324    0.67923    0.13097    1.000
    Si785    Si       0.99288    0.71738    0.16296    1.000
    N786     N        0.00412    0.76015    0.16221    1.000
    Si787    Si       0.15186    0.73440    0.16221    1.000
    N788     N        0.16460    0.71779    0.12238    1.000
    N789     N        0.13797    0.65901    0.14242    1.000
    N790     N        0.03630    0.52789    0.18706    1.000
    N791     N        0.09552    0.52542    0.20287    1.000
    Si792    Si       0.05660    0.51495    0.22247    1.000
    Si793    Si       0.01535    0.59752    0.19194    1.000
    Si794    Si       0.07310    0.54904    0.17418    1.000
    N795     N        0.05622    0.58900    0.17514    1.000
    N796     N        0.99605    0.58006    0.22845    1.000
    Si797    Si       0.99692    0.53505    0.17275    1.000
    N798     N        0.11535    0.62186    0.18559    1.000
    N799     N        0.22768    0.56122    0.17410    1.000
    N800     N        0.16980    0.53898    0.20455    1.000
    Si801    Si       0.20749    0.52429    0.18840    1.000
    Si802    Si       0.19685    0.62717    0.20839    1.000
    Si803    Si       0.12739    0.62425    0.22713    1.000
    N804     N        0.23522    0.61108    0.22202    1.000
    Si805    Si       0.13520    0.50957    0.20392    1.000
    N806     N        0.00755    0.64002    0.18452    1.000
    Si807    Si       0.03642    0.66890    0.19934    1.000
    N808     N        0.02208    0.70889    0.19532    1.000
    Si809    Si       0.09752    0.73651    0.21502    1.000
    Si810    Si       0.02913    0.75353    0.19814    1.000
    N811     N        0.11546    0.71524    0.18119    1.000
    Si812    Si       0.11445    0.66985    0.18015    1.000
    N813     N        0.07011    0.66646    0.17190    1.000
    Si814    Si       0.17283    0.69613    0.22506    1.000
    N815     N        0.13583    0.66785    0.21950    1.000
    Si816    Si       0.21458    0.74802    0.17736    1.000
    N817     N        0.18062    0.72831    0.19391    1.000
    N818     N        0.20318    0.66859    0.21322    1.000
    N819     N        0.09486    0.61100    0.25258    1.000
    Si820    Si       0.01822    0.56502    0.26321    1.000
    Si821    Si       0.09141    0.56775    0.26208    1.000
    N822     N        0.05414    0.55094    0.24593    1.000
    N823     N        0.03089    0.60386    0.28106    1.000
    Si824    Si       0.06029    0.63284    0.26854    1.000
    N825     N        0.01345    0.52724    0.28963    1.000
    N826     N        0.13261    0.55311    0.25989    1.000
    N827     N        0.20197    0.54957    0.26836    1.000
    Si828    Si       0.17080    0.56297    0.24187    1.000
    Si829    Si       0.22250    0.51110    0.26115    1.000
    N830     N        0.16541    0.60512    0.22930    1.000
    N831     N        0.07356    0.72199    0.24677    1.000
    Si832    Si       0.05108    0.69443    0.26891    1.000
    N833     N        0.04475    0.66146    0.24087    1.000
    Si834    Si       0.01318    0.75171    0.27737    1.000
    N835     N        0.01303    0.70973    0.28319    1.000
    Si836    Si       0.14913    0.75680    0.26604    1.000
    N837     N        0.24071    0.65629    0.28174    1.000
    N838     N        0.16239    0.71544    0.26372    1.000
    N839     N        0.22986    0.71990    0.24446    1.000
    Si840    Si       0.24029    0.69907    0.28091    1.000
    N841     N        0.08895    0.56071    0.30537    1.000
    Si842    Si       0.06685    0.55517    0.34162    1.000
    Si843    Si       0.99532    0.61603    0.30323    1.000
    Si844    Si       0.99222    0.53892    0.32434    1.000
    N845     N        0.11648    0.63202    0.34257    1.000
    Si846    Si       0.13098    0.55087    0.30387    1.000
    Si847    Si       0.20175    0.56729    0.30971    1.000
    N848     N        0.15978    0.57765    0.31824    1.000
    N849     N        0.22068    0.60304    0.32486    1.000
    Si850    Si       0.15756    0.61721    0.33692    1.000
    N851     N        0.13865    0.51184    0.32076    1.000
    N852     N        0.20923    0.53892    0.34369    1.000
    Si853    Si       0.09782    0.66825    0.33079    1.000
    N854     N        0.01091    0.64468    0.33065    1.000
    N855     N        0.06967    0.66533    0.29705    1.000
    N856     N        0.20828    0.70416    0.31032    1.000
    Si857    Si       0.16572    0.69216    0.30078    1.000
    Si858    Si       0.21561    0.64622    0.31486    1.000
    Si859    Si       0.21050    0.73223    0.34419    1.000
    N860     N        0.17234    0.64828    0.30986    1.000
    N861     N        0.12731    0.70059    0.31836    1.000
    Si862    Si       0.13690    0.73861    0.33813    1.000
    N863     N        0.09324    0.57488    0.37213    1.000
    Si864    Si       0.09316    0.61726    0.37600    1.000
    Si865    Si       0.10540    0.53699    0.38712    1.000
    Si866    Si       0.99562    0.56669    0.38326    1.000
    N867     N        0.08022    0.51595    0.35715    1.000
    N868     N        0.02318    0.55582    0.35034    1.000
    N869     N        0.05287    0.63093    0.38393    1.000
    N870     N        0.14706    0.53240    0.38544    1.000
    N871     N        0.17793    0.61231    0.37665    1.000
    Si872    Si       0.22082    0.61380    0.36917    1.000
    Si873    Si       0.17058    0.51693    0.35055    1.000
    Si874    Si       0.23740    0.54185    0.37788    1.000
    Si875    Si       0.01352    0.63711    0.37298    1.000
    N876     N        0.00745    0.67071    0.39915    1.000
    Si877    Si       0.09663    0.71719    0.39306    1.000
    N878     N        0.02445    0.73542    0.36324    1.000
    N879     N        0.08242    0.68372    0.36871    1.000
    Si880    Si       0.05088    0.67419    0.39993    1.000
    N881     N        0.10776    0.75085    0.36824    1.000
    Si882    Si       0.02189    0.74060    0.40918    1.000
    Si883    Si       0.22646    0.68128    0.39381    1.000
    N884     N        0.22458    0.65548    0.35754    1.000
    N885     N        0.17160    0.72684    0.36219    1.000
    Si886    Si       0.16770    0.72547    0.40517    1.000
    Si887    Si       0.04196    0.52948    0.43559    1.000
    N888     N        0.08216    0.52704    0.42305    1.000
    N889     N        0.00439    0.54143    0.41971    1.000
    N890     N        0.11501    0.62567    0.41015    1.000
    N891     N        0.16402    0.58053    0.44045    1.000
    Si892    Si       0.16990    0.54163    0.42137    1.000
    N893     N        0.21006    0.53163    0.41362    1.000
    N894     N        0.14306    0.52072    0.45100    1.000
    Si895    Si       0.15671    0.61571    0.41421    1.000
    Si896    Si       0.09412    0.63524    0.44462    1.000
    N897     N        0.05667    0.65725    0.44239    1.000
    N898     N        0.05775    0.71825    0.41556    1.000
    N899     N        0.98991    0.68750    0.46278    1.000
    N900     N        0.17410    0.64682    0.43930    1.000
    Si901    Si       0.14695    0.67944    0.45287    1.000
    N902     N        0.20274    0.70714    0.42327    1.000
    Si903    Si       0.21502    0.63805    0.45236    1.000
    N904     N        0.13152    0.70019    0.41656    1.000
    Si905    Si       0.07511    0.56945    0.48989    1.000
    Si906    Si       0.01551    0.52197    0.48965    1.000
    N907     N        0.04126    0.55200    0.47166    1.000
    N908     N        0.09722    0.60245    0.47191    1.000
    N909     N        0.10630    0.54389    0.50660    1.000
    N910     N        0.99404    0.57963    0.52484    1.000
    N911     N        0.01553    0.63066    0.49545    1.000
    Si912    Si       0.11964    0.62421    0.50198    1.000
    Si913    Si       0.21208    0.52741    0.51161    1.000
    N914     N        0.17729    0.55264    0.50543    1.000
    N915     N        0.15769    0.61013    0.51041    1.000
    Si916    Si       0.14342    0.52484    0.49547    1.000
    Si917    Si       0.18034    0.58687    0.47893    1.000
    N918     N        0.22084    0.60132    0.47475    1.000
    Si919    Si       0.02705    0.66485    0.47190    1.000
    N920     N        0.05191    0.68995    0.49932    1.000
    Si921    Si       0.09324    0.68138    0.50782    1.000
    N922     N        0.01252    0.74606    0.49053    1.000
    Si923    Si       0.04865    0.73265    0.51183    1.000
    N924     N        0.10886    0.71894    0.52010    1.000
    N925     N        0.11381    0.66209    0.47528    1.000
    N926     N        0.23245    0.73841    0.48490    1.000
    N927     N        0.22329    0.66788    0.48038    1.000
    N928     N        0.16612    0.71161    0.47706    1.000
    Si929    Si       0.14505    0.73688    0.50227    1.000
    Si930    Si       0.20762    0.70786    0.46601    1.000
    Si931    Si       0.09666    0.55391    0.54906    1.000
    N932     N        0.07349    0.52075    0.56568    1.000
    N933     N        0.03259    0.62893    0.56511    1.000
    N934     N        0.01408    0.51054    0.53167    1.000
    N935     N        0.06217    0.58024    0.52813    1.000
    Si936    Si       0.02755    0.60630    0.52918    1.000
    N937     N        0.14111    0.55229    0.56552    1.000
    N938     N        0.21066    0.57896    0.56257    1.000
    Si939    Si       0.16769    0.58417    0.54624    1.000
    Si940    Si       0.21936    0.53773    0.57958    1.000
    N941     N        0.14778    0.61304    0.57734    1.000
    N942     N        0.20556    0.50860    0.55056    1.000
    N943     N        0.10643    0.75120    0.58685    1.000
    N944     N        0.03736    0.73534    0.55489    1.000
    N945     N        0.10277    0.64714    0.53498    1.000
    Si946    Si       0.99779    0.71839    0.56412    1.000
    N947     N        0.99028    0.67940    0.58623    1.000
    N948     N        0.15856    0.74237    0.54258    1.000
    Si949    Si       0.12664    0.72214    0.56099    1.000
    Si950    Si       0.22968    0.68439    0.58249    1.000
    Si951    Si       0.12272    0.64780    0.57372    1.000
    N952     N        0.13900    0.68570    0.58240    1.000
    Si953    Si       0.19117    0.74807    0.56889    1.000
    N954     N        0.22429    0.65175    0.55400    1.000
    N955     N        0.21862    0.71619    0.55399    1.000
    Si956    Si       0.08186    0.52739    0.60915    1.000
    Si957    Si       0.01291    0.56609    0.62326    1.000
    N958     N        0.03132    0.60715    0.62280    1.000
    N959     N        0.04554    0.53756    0.63162    1.000
    Si960    Si       0.06309    0.61228    0.59130    1.000
    N961     N        0.08761    0.57822    0.58876    1.000
    N962     N        0.99056    0.55924    0.58771    1.000
    N963     N        0.12302    0.54045    0.62678    1.000
    Si964    Si       0.12875    0.58249    0.60528    1.000
    N965     N        0.19008    0.53327    0.61190    1.000
    Si966    Si       0.15110    0.52336    0.59776    1.000
    N967     N        0.13542    0.60535    0.64307    1.000
    N968     N        0.09207    0.64086    0.60453    1.000
    Si969    Si       0.00722    0.63930    0.60060    1.000
    N970     N        0.05233    0.74369    0.62653    1.000
    N971     N        0.02636    0.67003    0.63542    1.000
    Si972    Si       0.06173    0.75472    0.58470    1.000
    Si973    Si       0.11268    0.64237    0.64339    1.000
    Si974    Si       0.16323    0.69478    0.61850    1.000
    N975     N        0.20354    0.67982    0.61705    1.000
    N976     N        0.17075    0.73743    0.60740    1.000
    N977     N        0.01395    0.62509    0.69140    1.000
    N978     N        0.09219    0.51709    0.68469    1.000
    N979     N        0.01800    0.52086    0.69404    1.000
    Si980    Si       0.05086    0.51190    0.66779    1.000
    Si981    Si       0.12717    0.53507    0.66972    1.000
    N982     N        0.19634    0.57701    0.66868    1.000
    Si983    Si       0.15790    0.59671    0.67682    1.000
    Si984    Si       0.19609    0.53474    0.65522    1.000
    Si985    Si       0.23723    0.59055    0.67307    1.000
    N986     N        0.16520    0.50985    0.67010    1.000
    N987     N        0.23837    0.52119    0.65717    1.000
    N988     N        0.13334    0.56835    0.69753    1.000
    N989     N        0.16488    0.63100    0.70148    1.000
    N990     N        0.23542    0.62804    0.69447    1.000
    Si991    Si       0.03911    0.63299    0.65831    1.000
    N992     N        0.07889    0.64335    0.67042    1.000
    N993     N        0.06103    0.70662    0.68788    1.000
    N994     N        0.00109    0.72444    0.65561    1.000
    Si995    Si       0.04380    0.70794    0.64998    1.000
    Si996    Si       0.99056    0.72560    0.69745    1.000
    N997     N        0.17604    0.70861    0.69913    1.000
    N998     N        0.13013    0.75299    0.66100    1.000
    Si999    Si       0.16278    0.74878    0.69176    1.000
    N1000    N        0.14029    0.67407    0.65135    1.000
    Si1001   Si       0.15151    0.67405    0.69484    1.000
    N1002    N        0.08594    0.53842    0.74702    1.000
    Si1003   Si       0.99623    0.53095    0.72880    1.000
    N1004    N        0.10637    0.60506    0.75167    1.000
    N1005    N        0.99010    0.57402    0.72898    1.000
    Si1006   Si       0.11929    0.56729    0.73807    1.000
    N1007    N        0.21032    0.59651    0.74773    1.000
    Si1008   Si       0.20178    0.62926    0.72457    1.000
    Si1009   Si       0.06069    0.73484    0.72062    1.000
    Si1010   Si       0.01021    0.65375    0.72486    1.000
    N1011    N        0.01687    0.73950    0.72726    1.000
    N1012    N        0.05117    0.65617    0.73384    1.000
    N1013    N        0.08153    0.72066    0.75711    1.000
    Si1014   Si       0.07986    0.67172    0.70315    1.000
    N1015    N        0.11802    0.67802    0.72171    1.000
    N1016    N        0.20395    0.66833    0.74595    1.000
    Si1017   Si       0.21186    0.70612    0.72750    1.000
    N1018    N        0.20993    0.72893    0.76496    1.000
    N1019    N        0.04424    0.60102    0.77954    1.000
    Si1020   Si       0.05847    0.52815    0.77875    1.000
    N1021    N        0.01670    0.52937    0.76840    1.000
    Si1022   Si       0.00229    0.59389    0.76602    1.000
    N1023    N        0.99473    0.57559    0.80632    1.000
    Si1024   Si       0.07184    0.62865    0.76058    1.000
    Si1025   Si       0.03456    0.58453    0.81959    1.000
    N1026    N        0.05734    0.54651    0.81991    1.000
    N1027    N        0.23981    0.53461    0.76630    1.000
    N1028    N        0.11889    0.51722    0.81032    1.000
    Si1029   Si       0.22992    0.53242    0.80989    1.000
    Si1030   Si       0.12343    0.61863    0.78834    1.000
    Si1031   Si       0.18531    0.58691    0.78122    1.000
    Si1032   Si       0.14837    0.51704    0.77757    1.000
    N1033    N        0.16612    0.62694    0.78916    1.000
    N1034    N        0.20238    0.56564    0.81360    1.000
    N1035    N        0.15255    0.55863    0.76485    1.000
    N1036    N        0.02972    0.75746    0.79110    1.000
    N1037    N        0.03713    0.68799    0.80649    1.000
    Si1038   Si       0.05827    0.72754    0.79548    1.000
    N1039    N        0.09760    0.65372    0.78866    1.000
    Si1040   Si       0.11308    0.69235    0.76186    1.000
    N1041    N        0.20742    0.68203    0.81422    1.000
    Si1042   Si       0.23759    0.70418    0.78991    1.000
    Si1043   Si       0.18019    0.66808    0.78060    1.000
    Si1044   Si       0.17634    0.73887    0.79140    1.000
    N1045    N        0.15098    0.70260    0.77903    1.000
    N1046    N        0.03811    0.60943    0.85244    1.000
    Si1047   Si       0.10221    0.55193    0.83202    1.000
    N1048    N        0.10439    0.54076    0.87590    1.000
    Si1049   Si       0.03404    0.51282    0.83994    1.000
    N1050    N        0.11343    0.59280    0.82256    1.000
    N1051    N        0.01437    0.52876    0.87792    1.000
    N1052    N        0.21591    0.62730    0.85381    1.000
    Si1053   Si       0.13068    0.61253    0.85691    1.000
    Si1054   Si       0.20105    0.58594    0.85233    1.000
    N1055    N        0.16109    0.58497    0.86982    1.000
    N1056    N        0.23033    0.56176    0.87555    1.000
    N1057    N        0.07610    0.66472    0.86210    1.000
    N1058    N        0.08755    0.71742    0.82787    1.000
    Si1059   Si       0.08688    0.70610    0.87018    1.000
    Si1060   Si       0.00079    0.68642    0.82718    1.000
    N1061    N        0.00296    0.67243    0.86816    1.000
    Si1062   Si       0.07767    0.67444    0.82079    1.000
    N1063    N        0.14864    0.65173    0.85530    1.000
    Si1064   Si       0.19042    0.66220    0.84823    1.000
    Si1065   Si       0.01949    0.53893    0.92127    1.000
    N1066    N        0.10393    0.61135    0.89298    1.000
    Si1067   Si       0.06517    0.62847    0.88269    1.000
    N1068    N        0.98857    0.57288    0.91936    1.000
    N1069    N        0.03229    0.63152    0.91253    1.000
    N1070    N        0.05714    0.50845    0.92311    1.000
    Si1071   Si       0.00555    0.63063    0.87803    1.000
    N1072    N        0.14246    0.56899    0.93445    1.000
    N1073    N        0.17306    0.52144    0.89077    1.000
    Si1074   Si       0.21241    0.53083    0.89981    1.000
    N1075    N        0.22183    0.62230    0.91825    1.000
    Si1076   Si       0.14303    0.55280    0.89363    1.000
    Si1077   Si       0.12581    0.60935    0.92931    1.000
    N1078    N        0.04938    0.71882    0.88949    1.000
    Si1079   Si       0.01095    0.69949    0.90037    1.000
    Si1080   Si       0.11259    0.73889    0.92447    1.000
    Si1081   Si       0.22978    0.70601    0.89531    1.000
    N1082    N        0.19051    0.68648    0.88495    1.000
    N1083    N        0.12012    0.70328    0.89903    1.000
    Si1084   Si       0.14992    0.67046    0.89561    1.000
    N1085    N        0.15324    0.64043    0.92736    1.000
    N1086    N        0.22284    0.71929    0.93527    1.000
    N1087    N        0.09806    0.53399    0.97679    1.000
    N1088    N        0.03502    0.56017    0.96073    1.000
    N1089    N        0.09635    0.60445    0.96100    1.000
    Si1090   Si       0.07387    0.56927    0.97559    1.000
    Si1091   Si       0.00022    0.59295    0.95671    1.000
    N1092    N        0.03606    0.61935    0.98456    1.000
    Si1093   Si       0.00217    0.53636    0.98769    1.000
    Si1094   Si       0.07813    0.63355    0.98670    1.000
    Si1095   Si       0.23033    0.58775    0.94330    1.000
    Si1096   Si       0.13925    0.54901    0.97252    1.000
    N1097    N        0.20258    0.60061    0.97598    1.000
    Si1098   Si       0.20799    0.52257    0.97710    1.000
    N1099    N        0.21845    0.54661    0.94220    1.000
    N1100    N        0.16447    0.51225    0.97277    1.000
    Si1101   Si       0.02667    0.65155    0.95384    1.000
    N1102    N        0.08393    0.73984    0.95707    1.000
    N1103    N        0.06861    0.66823    0.96132    1.000
    Si1104   Si       0.07768    0.70462    0.98301    1.000
    N1105    N        0.00559    0.69164    0.94217    1.000
    Si1106   Si       0.19302    0.74269    0.95571    1.000
    Si1107   Si       0.19239    0.63689    0.94998    1.000
    N1108    N        0.20403    0.67070    0.97270    1.000
    Si1109   Si       0.13636    0.74569    0.99144    1.000
    N1110    N        0.14938    0.75094    0.94692    1.000
    N1111    N        0.03327    0.85109    0.02502    1.000
    Si1112   Si       0.03086    0.80808    0.03022    1.000
    N1113    N        0.10361    0.84436    0.01770    1.000
    N1114    N        0.04184    0.77187    0.00703    1.000
    Si1115   Si       0.07250    0.86167    0.04505    1.000
    Si1116   Si       0.00296    0.88034    0.02798    1.000
    Si1117   Si       0.09824    0.78073    0.05372    1.000
    N1118    N        0.11536    0.77607    0.01241    1.000
    N1119    N        0.17536    0.81728    0.02941    1.000
    Si1120   Si       0.14863    0.85024    0.01554    1.000
    Si1121   Si       0.21814    0.81761    0.02112    1.000
    N1122    N        0.23080    0.77652    0.02130    1.000
    N1123    N        0.14916    0.86777    0.05633    1.000
    Si1124   Si       0.09940    0.93546    0.03145    1.000
    N1125    N        0.06939    0.90557    0.04455    1.000
    Si1126   Si       0.04483    0.98766    0.03775    1.000
    N1127    N        0.08686    0.97591    0.04239    1.000
    Si1128   Si       0.99714    0.94230    0.00127    1.000
    N1129    N        0.03173    0.96852    0.00089    1.000
    N1130    N        0.23218    0.97215    0.99996    1.000
    Si1131   Si       0.22939    0.93292    0.02102    1.000
    N1132    N        0.18482    0.92734    0.02957    1.000
    Si1133   Si       0.05333    0.82325    0.10021    1.000
    N1134    N        0.07271    0.86165    0.09136    1.000
    N1135    N        0.06322    0.80614    0.06104    1.000
    Si1136   Si       0.00127    0.86581    0.11019    1.000
    N1137    N        0.01126    0.82193    0.11140    1.000
    N1138    N        0.18832    0.82352    0.09903    1.000
    N1139    N        0.12880    0.79370    0.08257    1.000
    Si1140   Si       0.16926    0.79724    0.06968    1.000
    Si1141   Si       0.15715    0.85530    0.09791    1.000
    N1142    N        0.08671    0.99063    0.11275    1.000
    N1143    N        0.00879    0.88735    0.07244    1.000
    N1144    N        0.02378    0.95845    0.06516    1.000
    Si1145   Si       0.03969    0.91797    0.07337    1.000
    Si1146   Si       0.11043    0.97260    0.08010    1.000
    N1147    N        0.05873    0.92744    0.11125    1.000
    N1148    N        0.20215    0.96094    0.11527    1.000
    N1149    N        0.14660    0.99499    0.09062    1.000
    Si1150   Si       0.16253    0.90937    0.06352    1.000
    N1151    N        0.12845    0.93616    0.06598    1.000
    N1152    N        0.17567    0.89409    0.10243    1.000
    Si1153   Si       0.23883    0.96561    0.09498    1.000
    N1154    N        0.07579    0.80339    0.13255    1.000
    N1155    N        0.03074    0.87638    0.14417    1.000
    Si1156   Si       0.11840    0.80031    0.12406    1.000
    N1157    N        0.12556    0.76614    0.14732    1.000
    Si1158   Si       0.21031    0.81266    0.13600    1.000
    N1159    N        0.13721    0.84069    0.13386    1.000
    N1160    N        0.20320    0.76837    0.14198    1.000
    Si1161   Si       0.12628    0.85990    0.17164    1.000
    N1162    N        0.20903    0.83614    0.17386    1.000
    Si1163   Si       0.07140    0.88843    0.12759    1.000
    N1164    N        0.01566    0.98584    0.14155    1.000
    N1165    N        0.10048    0.89290    0.15855    1.000
    Si1166   Si       0.05570    0.96448    0.13191    1.000
    N1167    N        0.07382    0.95349    0.16972    1.000
    Si1168   Si       0.11400    0.93305    0.16735    1.000
    N1169    N        0.15111    0.94159    0.14563    1.000
    N1170    N        0.21986    0.90326    0.15388    1.000
    N1171    N        0.14171    0.00620    0.15484    1.000
    Si1172   Si       0.18784    0.92248    0.13080    1.000
    Si1173   Si       0.16389    0.97963    0.12661    1.000
    N1174    N        0.03717    0.82529    0.19274    1.000
    N1175    N        0.10419    0.82931    0.19415    1.000
    Si1176   Si       0.02082    0.86314    0.18297    1.000
    N1177    N        0.07025    0.76161    0.18636    1.000
    Si1178   Si       0.07066    0.80436    0.17571    1.000
    N1179    N        0.04037    0.88239    0.21674    1.000
    Si1180   Si       0.23176    0.82194    0.20774    1.000
    N1181    N        0.23141    0.77642    0.20416    1.000
    N1182    N        0.15825    0.87701    0.19729    1.000
    Si1183   Si       0.19897    0.88023    0.18472    1.000
    Si1184   Si       0.05441    0.96470    0.20535    1.000
    N1185    N        0.01260    0.94745    0.21077    1.000
    N1186    N        0.21229    0.90992    0.21696    1.000
    N1187    N        0.12457    0.95486    0.20511    1.000
    N1188    N        0.19173    0.98639    0.20066    1.000
    Si1189   Si       0.14857    0.98887    0.19392    1.000
    Si1190   Si       0.21962    0.95200    0.21408    1.000
    N1191    N        0.06998    0.81957    0.25557    1.000
    N1192    N        0.00273    0.84656    0.25619    1.000
    N1193    N        0.00986    0.76650    0.23581    1.000
    Si1194   Si       0.00453    0.87042    0.29330    1.000
    Si1195   Si       0.04085    0.84203    0.23482    1.000
    Si1196   Si       0.10900    0.81052    0.23472    1.000
    N1197    N        0.12063    0.76893    0.23416    1.000
    Si1198   Si       0.22167    0.76170    0.24467    1.000
    N1199    N        0.18520    0.78059    0.25649    1.000
    Si1200   Si       0.18227    0.82290    0.26550    1.000
    N1201    N        0.14250    0.83350    0.25007    1.000
    Si1202   Si       0.14728    0.87628    0.23895    1.000
    N1203    N        0.21645    0.83913    0.24255    1.000
    N1204    N        0.17891    0.87998    0.27092    1.000
    N1205    N        0.06595    0.94826    0.24374    1.000
    N1206    N        0.11154    0.95780    0.28598    1.000
    Si1207   Si       0.10856    0.94320    0.24365    1.000
    Si1208   Si       0.02819    0.91792    0.23828    1.000
    Si1209   Si       0.06643    0.96529    0.28430    1.000
    N1210    N        0.01443    0.91178    0.27821    1.000
    N1211    N        0.11847    0.90271    0.25597    1.000
    Si1212   Si       0.21571    0.88227    0.24921    1.000
    N1213    N        0.16540    0.00089    0.28470    1.000
    N1214    N        0.03626    0.84725    0.31206    1.000
    N1215    N        0.09986    0.82362    0.31557    1.000
    N1216    N        0.04039    0.77703    0.30388    1.000
    Si1217   Si       0.09644    0.86550    0.33179    1.000
    Si1218   Si       0.02760    0.77458    0.34664    1.000
    Si1219   Si       0.06165    0.81446    0.29773    1.000
    Si1220   Si       0.13976    0.80888    0.32499    1.000
    N1221    N        0.17704    0.82824    0.31080    1.000
    N1222    N        0.14174    0.76793    0.30782    1.000
    Si1223   Si       0.21168    0.81690    0.34063    1.000
    Si1224   Si       0.17476    0.87226    0.31331    1.000
    N1225    N        0.21306    0.77375    0.33587    1.000
    N1226    N        0.13771    0.88081    0.33040    1.000
    N1227    N        0.04114    0.95834    0.31635    1.000
    N1228    N        0.08294    0.90136    0.31057    1.000
    Si1229   Si       0.00462    0.93453    0.31474    1.000
    N1230    N        0.01466    0.90577    0.34455    1.000
    Si1231   Si       0.05858    0.91309    0.34293    1.000
    Si1232   Si       0.14389    0.97573    0.31029    1.000
    N1233    N        0.16392    0.93706    0.31302    1.000
    N1234    N        0.20992    0.89050    0.33577    1.000
    Si1235   Si       0.20249    0.93548    0.33077    1.000
    Si1236   Si       0.12554    0.91327    0.30165    1.000
    N1237    N        0.04802    0.80734    0.36675    1.000
    N1238    N        0.07026    0.87467    0.36555    1.000
    Si1239   Si       0.03450    0.84757    0.35580    1.000
    N1240    N        0.99280    0.84604    0.36658    1.000
    Si1241   Si       0.06823    0.88087    0.40966    1.000
    Si1242   Si       0.12297    0.78272    0.39201    1.000
    N1243    N        0.20598    0.83284    0.38033    1.000
    N1244    N        0.14066    0.81450    0.36854    1.000
    Si1245   Si       0.16516    0.83999    0.39304    1.000
    N1246    N        0.17030    0.88276    0.39870    1.000
    N1247    N        0.07775    0.94466    0.36651    1.000
    N1248    N        0.01781    0.99412    0.36945    1.000
    Si1249   Si       0.08846    0.94784    0.41016    1.000
    Si1250   Si       0.05546    0.97928    0.35366    1.000
    Si1251   Si       0.21738    0.97144    0.40468    1.000
    N1252    N        0.19532    0.94291    0.37593    1.000
    Si1253   Si       0.15603    0.96626    0.38555    1.000
    Si1254   Si       0.20507    0.90029    0.37832    1.000
    N1255    N        0.14106    0.98978    0.35341    1.000
    N1256    N        0.04402    0.84742    0.42572    1.000
    N1257    N        0.02859    0.77780    0.43046    1.000
    Si1258   Si       0.01239    0.84683    0.45605    1.000
    N1259    N        0.10764    0.87457    0.42640    1.000
    N1260    N        0.09500    0.80346    0.41725    1.000
    Si1261   Si       0.05362    0.80882    0.40946    1.000
    Si1262   Si       0.11418    0.83479    0.44098    1.000
    N1263    N        0.15699    0.82954    0.43618    1.000
    N1264    N        0.21706    0.85623    0.44916    1.000
    Si1265   Si       0.16797    0.78869    0.45175    1.000
    N1266    N        0.15214    0.76457    0.41730    1.000
    N1267    N        0.20958    0.78717    0.44646    1.000
    Si1268   Si       0.17639    0.86204    0.46001    1.000
    Si1269   Si       0.23525    0.85031    0.40899    1.000
    N1270    N        0.05785    0.91976    0.42571    1.000
    N1271    N        0.00229    0.00314    0.43848    1.000
    N1272    N        0.07415    0.98971    0.41382    1.000
    N1273    N        0.17917    0.98857    0.41551    1.000
    Si1274   Si       0.16879    0.99814    0.45745    1.000
    N1275    N        0.23535    0.94542    0.43489    1.000
    N1276    N        0.12552    0.99557    0.46339    1.000
    Si1277   Si       0.14231    0.90261    0.42484    1.000
    N1278    N        0.15989    0.90400    0.46407    1.000
    N1279    N        0.13055    0.94023    0.40741    1.000
    N1280    N        0.01439    0.81696    0.48643    1.000
    N1281    N        0.06777    0.77136    0.49773    1.000
    Si1282   Si       0.10476    0.79266    0.50057    1.000
    N1283    N        0.10507    0.83415    0.48313    1.000
    Si1284   Si       0.03234    0.77990    0.47279    1.000
    Si1285   Si       0.98934    0.82140    0.52136    1.000
    N1286    N        0.16804    0.85363    0.50171    1.000
    N1287    N        0.14206    0.77680    0.48334    1.000
    Si1288   Si       0.12761    0.84887    0.52201    1.000
    N1289    N        0.01135    0.88556    0.47708    1.000
    Si1290   Si       0.99830    0.99005    0.47853    1.000
    N1291    N        0.01855    0.94970    0.48512    1.000
    N1292    N        0.07302    0.90937    0.49141    1.000
    Si1293   Si       0.04058    0.91585    0.46436    1.000
    Si1294   Si       0.16478    0.93245    0.49639    1.000
    Si1295   Si       0.11726    0.98689    0.50466    1.000
    N1296    N        0.18768    0.96608    0.48055    1.000
    N1297    N        0.12588    0.94507    0.51205    1.000
    Si1298   Si       0.23077    0.96167    0.47294    1.000
    N1299    N        0.01024    0.83997    0.55559    1.000
    Si1300   Si       0.10708    0.79431    0.57758    1.000
    Si1301   Si       0.99379    0.88044    0.56808    1.000
    N1302    N        0.06432    0.79884    0.58096    1.000
    N1303    N        0.11761    0.81017    0.53915    1.000
    N1304    N        0.16739    0.85611    0.56682    1.000
    N1305    N        0.20249    0.78961    0.56496    1.000
    Si1306   Si       0.19257    0.87351    0.53213    1.000
    N1307    N        0.11531    0.88569    0.54445    1.000
    N1308    N        0.99443    0.97259    0.54293    1.000
    N1309    N        0.05762    0.94015    0.54734    1.000
    Si1310   Si       0.01911    0.94194    0.52707    1.000
    Si1311   Si       0.09341    0.91988    0.52752    1.000
    N1312    N        0.20318    0.98091    0.55764    1.000
    N1313    N        0.14133    0.00633    0.53555    1.000
    Si1314   Si       0.14039    0.88846    0.57982    1.000
    N1315    N        0.18468    0.91502    0.53126    1.000
    Si1316   Si       0.19783    0.93856    0.56491    1.000
    N1317    N        0.01997    0.83915    0.62793    1.000
    N1318    N        0.00068    0.78441    0.60332    1.000
    Si1319   Si       0.02484    0.81777    0.58803    1.000
    Si1320   Si       0.01594    0.76303    0.64025    1.000
    N1321    N        0.12896    0.86954    0.61876    1.000
    N1322    N        0.20958    0.83394    0.61601    1.000
    N1323    N        0.14105    0.80276    0.60459    1.000
    Si1324   Si       0.13400    0.83137    0.63768    1.000
    Si1325   Si       0.17844    0.81953    0.58598    1.000
    Si1326   Si       0.13638    0.76093    0.62029    1.000
    Si1327   Si       0.02899    0.88212    0.63075    1.000
    Si1328   Si       0.05566    0.93111    0.58936    1.000
    Si1329   Si       0.10326    0.89983    0.63503    1.000
    N1330    N        0.03959    0.95409    0.62167    1.000
    N1331    N        0.09683    0.92178    0.59833    1.000
    N1332    N        0.02913    0.89467    0.58958    1.000
    N1333    N        0.99037    0.00389    0.63349    1.000
    N1334    N        0.14710    0.98334    0.63049    1.000
    Si1335   Si       0.15781    0.94047    0.63287    1.000
    N1336    N        0.16834    0.92244    0.59414    1.000
    N1337    N        0.01257    0.79148    0.67297    1.000
    Si1338   Si       0.08043    0.85395    0.68104    1.000
    N1339    N        0.10039    0.82037    0.66156    1.000
    Si1340   Si       0.10934    0.78263    0.68396    1.000
    Si1341   Si       0.99305    0.82971    0.66009    1.000
    N1342    N        0.99787    0.85238    0.69897    1.000
    Si1343   Si       0.23762    0.78520    0.67760    1.000
    N1344    N        0.23115    0.82762    0.68692    1.000
    Si1345   Si       0.20588    0.84835    0.65704    1.000
    N1346    N        0.16650    0.83097    0.66618    1.000
    N1347    N        0.19922    0.77135    0.69089    1.000
    Si1348   Si       0.17981    0.80889    0.70155    1.000
    N1349    N        0.06767    0.88405    0.65163    1.000
    N1350    N        0.99205    0.89511    0.64887    1.000
    N1351    N        0.02329    0.97735    0.68864    1.000
    Si1352   Si       0.02890    0.98679    0.64636    1.000
    Si1353   Si       0.13718    0.90979    0.70117    1.000
    N1354    N        0.12895    0.92240    0.66225    1.000
    Si1355   Si       0.20589    0.91851    0.68586    1.000
    N1356    N        0.18939    0.94976    0.66353    1.000
    Si1357   Si       0.17624    0.99272    0.66366    1.000
    N1358    N        0.22184    0.88936    0.65815    1.000
    Si1359   Si       0.01870    0.84935    0.73701    1.000
    N1360    N        0.01700    0.80539    0.74264    1.000
    N1361    N        0.05942    0.84186    0.71908    1.000
    Si1362   Si       0.09419    0.85845    0.74298    1.000
    Si1363   Si       0.00389    0.76695    0.75830    1.000
    Si1364   Si       0.03879    0.80175    0.70505    1.000
    N1365    N        0.07185    0.77452    0.70294    1.000
    N1366    N        0.11045    0.87509    0.70561    1.000
    N1367    N        0.17477    0.82903    0.73972    1.000
    Si1368   Si       0.18772    0.87037    0.74247    1.000
    N1369    N        0.14226    0.78399    0.71269    1.000
    Si1370   Si       0.14262    0.80187    0.75275    1.000
    N1371    N        0.23255    0.87125    0.74175    1.000
    Si1372   Si       0.98726    0.95916    0.70607    1.000
    N1373    N        0.99683    0.92035    0.72185    1.000
    Si1374   Si       0.05286    0.99109    0.71677    1.000
    N1375    N        0.06345    0.95995    0.74737    1.000
    Si1376   Si       0.09305    0.93217    0.75737    1.000
    N1377    N        0.17628    0.89660    0.70955    1.000
    N1378    N        0.12805    0.94225    0.73022    1.000
    N1379    N        0.19091    0.96300    0.74591    1.000
    Si1380   Si       0.23374    0.95578    0.74557    1.000
    Si1381   Si       0.15090    0.97958    0.73535    1.000
    N1382    N        0.23789    0.93810    0.70685    1.000
    N1383    N        0.16134    0.00479    0.70169    1.000
    N1384    N        0.01578    0.87482    0.77166    1.000
    Si1385   Si       0.10503    0.83280    0.81216    1.000
    Si1386   Si       0.05004    0.87657    0.79904    1.000
    N1387    N        0.11241    0.82981    0.76926    1.000
    N1388    N        0.15277    0.77633    0.78511    1.000
    Si1389   Si       0.16498    0.79449    0.82403    1.000
    N1390    N        0.18603    0.83290    0.82088    1.000
    N1391    N        0.07965    0.89109    0.76672    1.000
    Si1392   Si       0.03818    0.98100    0.77595    1.000
    N1393    N        0.01238    0.94775    0.78960    1.000
    N1394    N        0.05634    0.98595    0.81446    1.000
    Si1395   Si       0.99724    0.91435    0.76492    1.000
    Si1396   Si       0.18370    0.93024    0.77678    1.000
    Si1397   Si       0.13788    0.97216    0.80691    1.000
    Si1398   Si       0.22075    0.95574    0.82010    1.000
    N1399    N        0.13830    0.99813    0.77260    1.000
    N1400    N        0.11064    0.94021    0.79799    1.000
    N1401    N        0.17715    0.95303    0.81223    1.000
    N1402    N        0.17402    0.88844    0.77905    1.000
    N1403    N        0.23036    0.93095    0.78301    1.000
    N1404    N        0.23293    0.99729    0.81835    1.000
    Si1405   Si       0.04250    0.82206    0.85524    1.000
    N1406    N        0.03530    0.77751    0.85518    1.000
    N1407    N        0.00284    0.83580    0.86703    1.000
    Si1408   Si       0.00473    0.76633    0.82639    1.000
    Si1409   Si       0.10883    0.80403    0.88005    1.000
    N1410    N        0.05956    0.83946    0.81901    1.000
    N1411    N        0.19125    0.75882    0.82796    1.000
    N1412    N        0.12451    0.80475    0.83883    1.000
    Si1413   Si       0.23142    0.84071    0.82808    1.000
    N1414    N        0.23467    0.86842    0.86259    1.000
    Si1415   Si       0.23414    0.75930    0.83519    1.000
    N1416    N        0.12161    0.87284    0.82141    1.000
    Si1417   Si       0.16611    0.87197    0.81773    1.000
    Si1418   Si       0.08131    0.00822    0.84231    1.000
    Si1419   Si       0.10284    0.91136    0.82945    1.000
    N1420    N        0.01518    0.96347    0.86396    1.000
    N1421    N        0.05739    0.90916    0.82718    1.000
    Si1422   Si       0.03564    0.94782    0.82938    1.000
    N1423    N        0.17310    0.89396    0.85543    1.000
    N1424    N        0.11947    0.93039    0.86317    1.000
    N1425    N        0.12237    0.99660    0.84135    1.000
    Si1426   Si       0.21223    0.90679    0.86955    1.000
    N1427    N        0.07017    0.82741    0.88823    1.000
    Si1428   Si       0.06293    0.84069    0.92940    1.000
    N1429    N        0.02888    0.77169    0.92893    1.000
    N1430    N        0.09503    0.76559    0.89445    1.000
    N1431    N        0.02236    0.85898    0.93284    1.000
    Si1432   Si       0.04877    0.76130    0.89204    1.000
    Si1433   Si       0.98715    0.84053    0.90983    1.000
    N1434    N        0.14097    0.81487    0.90805    1.000
    Si1435   Si       0.13331    0.85014    0.93574    1.000
    N1436    N        0.15689    0.88326    0.91994    1.000
    N1437    N        0.99402    0.92468    0.92386    1.000
    Si1438   Si       0.03324    0.99180    0.88892    1.000
    N1439    N        0.02647    0.98534    0.93226    1.000
    N1440    N        0.07498    0.98569    0.88177    1.000
    N1441    N        0.18600    0.94323    0.89321    1.000
    Si1442   Si       0.15011    0.91541    0.89077    1.000
    Si1443   Si       0.11573    0.96963    0.88444    1.000
    N1444    N        0.12189    0.93581    0.92707    1.000
    Si1445   Si       0.18277    0.98639    0.89743    1.000
    N1446    N        0.14180    0.99157    0.90998    1.000
    N1447    N        0.21948    0.89639    0.91707    1.000
    N1448    N        0.21323    0.98683    0.92815    1.000
    Si1449   Si       0.21808    0.93978    0.92652    1.000
    N1450    N        0.07136    0.81014    0.95978    1.000
    Si1451   Si       0.05422    0.77080    0.96450    1.000
    Si1452   Si       0.10231    0.81263    0.98921    1.000
    N1453    N        0.09470    0.86871    0.93986    1.000
    N1454    N        0.14004    0.82282    0.96907    1.000
    N1455    N        0.20084    0.78576    0.95040    1.000
    N1456    N        0.16589    0.88050    0.98744    1.000
    N1457    N        0.23326    0.83801    0.98633    1.000
    Si1458   Si       0.15932    0.79591    0.94195    1.000
    Si1459   Si       0.23796    0.80958    0.95410    1.000
    Si1460   Si       0.02225    0.90056    0.94825    1.000
    N1461    N        0.08905    0.98626    0.95792    1.000
    N1462    N        0.05859    0.92611    0.95119    1.000
    Si1463   Si       0.05144    0.96782    0.96285    1.000
    Si1464   Si       0.09935    0.91024    0.95380    1.000
    N1465    N        0.01109    0.90153    0.98945    1.000
    Si1466   Si       0.15997    0.92715    0.99293    1.000
    N1467    N        0.11694    0.92392    0.99299    1.000
    Si1468   Si       0.12840    0.97396    0.94744    1.000
    Si1469   Si       0.20118    0.98529    0.97118    1.000
    N1470    N        0.19085    0.93442    0.96082    1.000
    Si1471   Si       0.18749    0.89030    0.94818    1.000
    N1472    N        0.15662    0.98291    0.98008    1.000
    Si1473   Si       0.30972    0.05391    0.01742    1.000
    N1474    N        0.29571    0.09254    0.02750    1.000
    Si1475   Si       0.33167    0.11420    0.04207    1.000
    Si1476   Si       0.25355    0.09453    0.01721    1.000
    N1477    N        0.34459    0.04321    0.04326    1.000
    N1478    N        0.35583    0.11032    0.00693    1.000
    N1479    N        0.28318    0.02098    0.02720    1.000
    N1480    N        0.43377    0.10813    0.04084    1.000
    Si1481   Si       0.37958    0.02197    0.02765    1.000
    N1482    N        0.41473    0.04140    0.04628    1.000
    N1483    N        0.47513    0.01484    0.05208    1.000
    Si1484   Si       0.44204    0.10586    0.99716    1.000
    Si1485   Si       0.49111    0.01601    0.01215    1.000
    N1486    N        0.24120    0.13641    0.02768    1.000
    Si1487   Si       0.31681    0.25428    0.01515    1.000
    Si1488   Si       0.25409    0.17124    0.00414    1.000
    N1489    N        0.33937    0.21650    0.01518    1.000
    N1490    N        0.27047    0.19713    0.03558    1.000
    Si1491   Si       0.31070    0.18443    0.02241    1.000
    N1492    N        0.32934    0.15701    0.04890    1.000
    N1493    N        0.39137    0.16446    0.02881    1.000
    N1494    N        0.41353    0.22474    0.00433    1.000
    Si1495   Si       0.38041    0.20860    0.02594    1.000
    N1496    N        0.47271    0.24365    0.03853    1.000
    Si1497   Si       0.45201    0.20976    0.02225    1.000
    Si1498   Si       0.42280    0.14764    0.05420    1.000
    N1499    N        0.29902    0.05277    0.09027    1.000
    N1500    N        0.34445    0.09995    0.08105    1.000
    Si1501   Si       0.34182    0.05744    0.08457    1.000
    Si1502   Si       0.28540    0.01751    0.07118    1.000
    N1503    N        0.23786    0.07751    0.10939    1.000
    Si1504   Si       0.43669    0.07354    0.06700    1.000
    N1505    N        0.47852    0.07567    0.08212    1.000
    N1506    N        0.41727    0.07464    0.10826    1.000
    N1507    N        0.25538    0.22410    0.09810    1.000
    N1508    N        0.34237    0.16664    0.11250    1.000
    Si1509   Si       0.26176    0.23323    0.05576    1.000
    N1510    N        0.39867    0.14234    0.09037    1.000
    Si1511   Si       0.39801    0.23791    0.09648    1.000
    Si1512   Si       0.36424    0.17087    0.07668    1.000
    N1513    N        0.37759    0.21102    0.06961    1.000
    N1514    N        0.45464    0.17741    0.05333    1.000
    Si1515   Si       0.32604    0.02613    0.14778    1.000
    N1516    N        0.29186    0.05461    0.15654    1.000
    N1517    N        0.30097    0.11190    0.13039    1.000
    Si1518   Si       0.27996    0.07685    0.11780    1.000
    Si1519   Si       0.34061    0.12252    0.11722    1.000
    N1520    N        0.35927    0.03637    0.12122    1.000
    Si1521   Si       0.29002    0.12775    0.17017    1.000
    N1522    N        0.37275    0.11284    0.14681    1.000
    N1523    N        0.42174    0.02406    0.16405    1.000
    Si1524   Si       0.40589    0.03396    0.12389    1.000
    Si1525   Si       0.40965    0.11548    0.12207    1.000
    N1526    N        0.43271    0.12139    0.15826    1.000
    Si1527   Si       0.28155    0.24251    0.12906    1.000
    N1528    N        0.32391    0.23386    0.13653    1.000
    Si1529   Si       0.32926    0.19160    0.14493    1.000
    N1530    N        0.26231    0.22980    0.16630    1.000
    N1531    N        0.29353    0.16953    0.16171    1.000
    N1532    N        0.47801    0.19559    0.14524    1.000
    Si1533   Si       0.46006    0.23335    0.14083    1.000
    N1534    N        0.41583    0.22229    0.13258    1.000
    Si1535   Si       0.39533    0.21060    0.17096    1.000
    Si1536   Si       0.27173    0.06274    0.19414    1.000
    N1537    N        0.24996    0.02409    0.20498    1.000
    N1538    N        0.25742    0.10226    0.18485    1.000
    N1539    N        0.30502    0.05942    0.22057    1.000
    N1540    N        0.32160    0.12639    0.20255    1.000
    Si1541   Si       0.33000    0.02458    0.22368    1.000
    N1542    N        0.34374    0.00816    0.18566    1.000
    N1543    N        0.40375    0.07981    0.20857    1.000
    Si1544   Si       0.43360    0.05301    0.19423    1.000
    Si1545   Si       0.39705    0.11640    0.18466    1.000
    N1546    N        0.46940    0.07706    0.18795    1.000
    Si1547   Si       0.46790    0.11990    0.18330    1.000
    N1548    N        0.25549    0.18230    0.21917    1.000
    Si1549   Si       0.34964    0.15904    0.20982    1.000
    Si1550   Si       0.25474    0.18786    0.17445    1.000
    N1551    N        0.36191    0.18258    0.17347    1.000
    Si1552   Si       0.42454    0.16376    0.23036    1.000
    N1553    N        0.47038    0.24941    0.17949    1.000
    Si1554   Si       0.46162    0.21795    0.20769    1.000
    N1555    N        0.37661    0.24857    0.18209    1.000
    N1556    N        0.45679    0.13768    0.22027    1.000
    N1557    N        0.42426    0.19639    0.19866    1.000
    N1558    N        0.38933    0.14259    0.21899    1.000
    N1559    N        0.34908    0.08689    0.25846    1.000
    N1560    N        0.28842    0.12416    0.25922    1.000
    N1561    N        0.24703    0.03107    0.27983    1.000
    Si1562   Si       0.31604    0.09924    0.23433    1.000
    N1563    N        0.36815    0.02679    0.24481    1.000
    Si1564   Si       0.45371    0.05949    0.26732    1.000
    Si1565   Si       0.38640    0.06991    0.24632    1.000
    N1566    N        0.41246    0.06927    0.28006    1.000
    N1567    N        0.43993    0.03192    0.23269    1.000
    Si1568   Si       0.28606    0.16364    0.24548    1.000
    N1569    N        0.27154    0.19132    0.27625    1.000
    Si1570   Si       0.33820    0.21631    0.26054    1.000
    Si1571   Si       0.24528    0.21449    0.24740    1.000
    N1572    N        0.32670    0.17863    0.24034    1.000
    N1573    N        0.25973    0.25175    0.23115    1.000
    N1574    N        0.38040    0.22817    0.25006    1.000
    N1575    N        0.42723    0.18088    0.26955    1.000
    Si1576   Si       0.42041    0.22513    0.26551    1.000
    N1577    N        0.45082    0.24307    0.24194    1.000
    Si1578   Si       0.27157    0.03659    0.31602    1.000
    N1579    N        0.34204    0.11190    0.32312    1.000
    N1580    N        0.29424    0.06998    0.29977    1.000
    Si1581   Si       0.33634    0.07756    0.29673    1.000
    N1582    N        0.35635    0.04117    0.31156    1.000
    Si1583   Si       0.33152    0.01336    0.33722    1.000
    Si1584   Si       0.27308    0.10940    0.29702    1.000
    Si1585   Si       0.39933    0.04135    0.31386    1.000
    N1586    N        0.46887    0.03913    0.30147    1.000
    N1587    N        0.27584    0.13854    0.32915    1.000
    N1588    N        0.26858    0.20971    0.34069    1.000
    Si1589   Si       0.29729    0.23610    0.32229    1.000
    Si1590   Si       0.25763    0.17602    0.31489    1.000
    N1591    N        0.33426    0.22195    0.30374    1.000
    Si1592   Si       0.36122    0.24325    0.33295    1.000
    Si1593   Si       0.37517    0.13503    0.33899    1.000
    Si1594   Si       0.42175    0.19038    0.31401    1.000
    N1595    N        0.42012    0.23302    0.30584    1.000
    N1596    N        0.38384    0.17054    0.31991    1.000
    N1597    N        0.44928    0.17984    0.34495    1.000
    N1598    N        0.32476    0.03831    0.37287    1.000
    Si1599   Si       0.28725    0.05986    0.38130    1.000
    N1600    N        0.28865    0.10323    0.38006    1.000
    Si1601   Si       0.25407    0.12929    0.36905    1.000
    Si1602   Si       0.31325    0.12512    0.35191    1.000
    N1603    N        0.25502    0.05275    0.35132    1.000
    N1604    N        0.40698    0.04374    0.35680    1.000
    Si1605   Si       0.42305    0.07986    0.37450    1.000
    N1606    N        0.46287    0.08436    0.35619    1.000
    N1607    N        0.40729    0.11971    0.36088    1.000
    Si1608   Si       0.49057    0.10212    0.38409    1.000
    N1609    N        0.47454    0.01072    0.40390    1.000
    N1610    N        0.34695    0.14442    0.37294    1.000
    Si1611   Si       0.26363    0.20642    0.38360    1.000
    Si1612   Si       0.33782    0.24314    0.39423    1.000
    N1613    N        0.24983    0.16564    0.38930    1.000
    N1614    N        0.30282    0.21440    0.40051    1.000
    N1615    N        0.32349    0.25709    0.35256    1.000
    N1616    N        0.46182    0.13311    0.39834    1.000
    Si1617   Si       0.41661    0.25587    0.39053    1.000
    Si1618   Si       0.43165    0.15351    0.37599    1.000
    N1619    N        0.38020    0.24082    0.37467    1.000
    N1620    N        0.40514    0.17035    0.40775    1.000
    N1621    N        0.45697    0.23860    0.39374    1.000
    N1622    N        0.34644    0.05194    0.43907    1.000
    N1623    N        0.28240    0.04737    0.42135    1.000
    Si1624   Si       0.30871    0.06605    0.45340    1.000
    N1625    N        0.29002    0.10636    0.45879    1.000
    Si1626   Si       0.24709    0.10884    0.46295    1.000
    Si1627   Si       0.34041    0.01998    0.41031    1.000
    N1628    N        0.36908    0.11611    0.43324    1.000
    Si1629   Si       0.38419    0.07545    0.43850    1.000
    Si1630   Si       0.45647    0.07725    0.44612    1.000
    N1631    N        0.42208    0.07427    0.41755    1.000
    N1632    N        0.33750    0.17214    0.43774    1.000
    N1633    N        0.34839    0.23775    0.43946    1.000
    Si1634   Si       0.31376    0.20741    0.44425    1.000
    Si1635   Si       0.31365    0.14378    0.46241    1.000
    N1636    N        0.29075    0.24615    0.46484    1.000
    N1637    N        0.28786    0.17801    0.46822    1.000
    N1638    N        0.40852    0.22108    0.46384    1.000
    Si1639   Si       0.36405    0.15251    0.40998    1.000
    Si1640   Si       0.48618    0.21665    0.41491    1.000
    Si1641   Si       0.47938    0.14315    0.43653    1.000
    Si1642   Si       0.42142    0.18387    0.44705    1.000
    N1643    N        0.46533    0.18379    0.43930    1.000
    N1644    N        0.29989    0.04341    0.49021    1.000
    Si1645   Si       0.25760    0.03368    0.48651    1.000
    N1646    N        0.33942    0.13535    0.49639    1.000
    Si1647   Si       0.31862    0.03511    0.52830    1.000
    Si1648   Si       0.43593    0.02607    0.50745    1.000
    N1649    N        0.39431    0.08504    0.47967    1.000
    Si1650   Si       0.48241    0.12899    0.50599    1.000
    Si1651   Si       0.37587    0.12783    0.47384    1.000
    Si1652   Si       0.39171    0.08273    0.52208    1.000
    N1653    N        0.45505    0.04159    0.47090    1.000
    N1654    N        0.46507    0.11639    0.46712    1.000
    Si1655   Si       0.24682    0.18163    0.47950    1.000
    Si1656   Si       0.25278    0.25008    0.48577    1.000
    N1657    N        0.24366    0.21287    0.50684    1.000
    Si1658   Si       0.42601    0.23185    0.50211    1.000
    Si1659   Si       0.41598    0.15705    0.52138    1.000
    N1660    N        0.40978    0.15490    0.47819    1.000
    N1661    N        0.40641    0.20010    0.52823    1.000
    N1662    N        0.46928    0.24247    0.50872    1.000
    N1663    N        0.32223    0.11158    0.56615    1.000
    Si1664   Si       0.34063    0.07314    0.57291    1.000
    N1665    N        0.30443    0.04612    0.56688    1.000
    N1666    N        0.24690    0.09890    0.55449    1.000
    Si1667   Si       0.28037    0.11533    0.57643    1.000
    N1668    N        0.35336    0.06201    0.53258    1.000
    N1669    N        0.25084    0.02442    0.52704    1.000
    N1670    N        0.42146    0.05480    0.53668    1.000
    Si1671   Si       0.41795    0.06237    0.57995    1.000
    N1672    N        0.38992    0.12329    0.53280    1.000
    Si1673   Si       0.34653    0.13743    0.53911    1.000
    N1674    N        0.28822    0.22843    0.56158    1.000
    Si1675   Si       0.24734    0.23323    0.54648    1.000
    N1676    N        0.27018    0.15716    0.56113    1.000
    N1677    N        0.35358    0.24649    0.56232    1.000
    Si1678   Si       0.30107    0.18743    0.56812    1.000
    N1679    N        0.33967    0.17816    0.55010    1.000
    Si1680   Si       0.23879    0.13845    0.53666    1.000
    Si1681   Si       0.46914    0.17695    0.56696    1.000
    N1682    N        0.45726    0.15366    0.53071    1.000
    N1683    N        0.46238    0.21868    0.57559    1.000
    Si1684   Si       0.37332    0.20728    0.55325    1.000
    N1685    N        0.27254    0.11930    0.61992    1.000
    Si1686   Si       0.28180    0.02137    0.59339    1.000
    N1687    N        0.31148    0.01533    0.62773    1.000
    N1688    N        0.24014    0.03917    0.59235    1.000
    N1689    N        0.37784    0.06697    0.59383    1.000
    Si1690   Si       0.46556    0.12451    0.61342    1.000
    Si1691   Si       0.47087    0.03863    0.60873    1.000
    N1692    N        0.43343    0.02214    0.59189    1.000
    Si1693   Si       0.37651    0.06533    0.63753    1.000
    N1694    N        0.45249    0.08458    0.59498    1.000
    N1695    N        0.47940    0.01108    0.64228    1.000
    N1696    N        0.25654    0.24400    0.62874    1.000
    N1697    N        0.31224    0.17994    0.61298    1.000
    N1698    N        0.34815    0.23744    0.63426    1.000
    Si1699   Si       0.35213    0.19517    0.62382    1.000
    Si1700   Si       0.28708    0.15628    0.63892    1.000
    Si1701   Si       0.41706    0.18725    0.62146    1.000
    Si1702   Si       0.47116    0.23335    0.61569    1.000
    Si1703   Si       0.37376    0.25146    0.60158    1.000
    N1704    N        0.38823    0.20869    0.59592    1.000
    N1705    N        0.44518    0.16055    0.59975    1.000
    N1706    N        0.44343    0.21479    0.64591    1.000
    Si1707   Si       0.30464    0.04526    0.65888    1.000
    Si1708   Si       0.32927    0.10793    0.68432    1.000
    N1709    N        0.26247    0.05753    0.65578    1.000
    N1710    N        0.33503    0.07588    0.65126    1.000
    N1711    N        0.31376    0.02154    0.69408    1.000
    Si1712   Si       0.24575    0.09560    0.64432    1.000
    N1713    N        0.48551    0.06486    0.68687    1.000
    Si1714   Si       0.39042    0.01686    0.69958    1.000
    N1715    N        0.37988    0.02400    0.65431    1.000
    Si1716   Si       0.43247    0.11458    0.67983    1.000
    N1717    N        0.46892    0.12216    0.65726    1.000
    N1718    N        0.40859    0.09224    0.65133    1.000
    N1719    N        0.25115    0.17409    0.65794    1.000
    N1720    N        0.29991    0.21014    0.67594    1.000
    Si1721   Si       0.32556    0.24624    0.67012    1.000
    Si1722   Si       0.25853    0.21727    0.66396    1.000
    N1723    N        0.31290    0.14402    0.67156    1.000
    N1724    N        0.23853    0.23349    0.69941    1.000
    Si1725   Si       0.43157    0.23870    0.68021    1.000
    Si1726   Si       0.37885    0.15809    0.68645    1.000
    N1727    N        0.38174    0.17190    0.64571    1.000
    N1728    N        0.42216    0.15324    0.69498    1.000
    Si1729   Si       0.33117    0.04396    0.72435    1.000
    Si1730   Si       0.29583    0.10153    0.74759    1.000
    N1731    N        0.31225    0.08018    0.71341    1.000
    N1732    N        0.25402    0.08933    0.75132    1.000
    N1733    N        0.33177    0.01865    0.76136    1.000
    N1734    N        0.47528    0.05317    0.75201    1.000
    N1735    N        0.37455    0.05117    0.71911    1.000
    Si1736   Si       0.38890    0.09230    0.72932    1.000
    Si1737   Si       0.45375    0.05473    0.71476    1.000
    N1738    N        0.42946    0.09070    0.71625    1.000
    N1739    N        0.43389    0.01605    0.70458    1.000
    N1740    N        0.36822    0.11787    0.70107    1.000
    N1741    N        0.30372    0.14300    0.73640    1.000
    Si1742   Si       0.25106    0.21211    0.73476    1.000
    N1743    N        0.29273    0.20212    0.74026    1.000
    N1744    N        0.35439    0.18525    0.70936    1.000
    Si1745   Si       0.31191    0.17702    0.70538    1.000
    N1746    N        0.35272    0.25430    0.70380    1.000
    N1747    N        0.47162    0.17669    0.74137    1.000
    Si1748   Si       0.43063    0.18008    0.72623    1.000
    Si1749   Si       0.37012    0.22062    0.72822    1.000
    N1750    N        0.41126    0.21843    0.71399    1.000
    N1751    N        0.27977    0.04183    0.79607    1.000
    Si1752   Si       0.32433    0.04558    0.79243    1.000
    Si1753   Si       0.25230    0.07488    0.79296    1.000
    Si1754   Si       0.35390    0.11715    0.79204    1.000
    N1755    N        0.32316    0.08678    0.77772    1.000
    N1756    N        0.35980    0.04047    0.81687    1.000
    N1757    N        0.26818    0.10837    0.81541    1.000
    Si1758   Si       0.40378    0.02606    0.81338    1.000
    Si1759   Si       0.48231    0.04699    0.79328    1.000
    N1760    N        0.43631    0.05284    0.80470    1.000
    Si1761   Si       0.42353    0.09634    0.79775    1.000
    N1762    N        0.45742    0.12254    0.79062    1.000
    N1763    N        0.39006    0.10141    0.77217    1.000
    Si1764   Si       0.33798    0.25246    0.79703    1.000
    N1765    N        0.29804    0.24063    0.80855    1.000
    Si1766   Si       0.30816    0.17258    0.77121    1.000
    N1767    N        0.28104    0.17246    0.80569    1.000
    N1768    N        0.34678    0.16068    0.78481    1.000
    N1769    N        0.36071    0.22506    0.77127    1.000
    Si1770   Si       0.24921    0.14633    0.81776    1.000
    Si1771   Si       0.25930    0.25698    0.79289    1.000
    Si1772   Si       0.37992    0.18972    0.78607    1.000
    Si1773   Si       0.45470    0.16476    0.78194    1.000
    N1774    N        0.46372    0.19121    0.81518    1.000
    N1775    N        0.41313    0.17242    0.76429    1.000
    N1776    N        0.30887    0.06109    0.85589    1.000
    Si1777   Si       0.30249    0.10181    0.84292    1.000
    Si1778   Si       0.34926    0.04389    0.85942    1.000
    N1779    N        0.34113    0.11665    0.83248    1.000
    N1780    N        0.29797    0.13292    0.87355    1.000
    N1781    N        0.23690    0.05493    0.86493    1.000
    N1782    N        0.41478    0.10615    0.83850    1.000
    Si1783   Si       0.44161    0.10410    0.87138    1.000
    N1784    N        0.47991    0.12445    0.86186    1.000
    Si1785   Si       0.29074    0.20603    0.83389    1.000
    N1786    N        0.27106    0.21383    0.87080    1.000
    Si1787   Si       0.33629    0.15042    0.86237    1.000
    N1788    N        0.33129    0.19226    0.85173    1.000
    N1789    N        0.44627    0.22316    0.87468    1.000
    Si1790   Si       0.36684    0.21826    0.85196    1.000
    Si1791   Si       0.43658    0.22119    0.82988    1.000
    N1792    N        0.39736    0.20556    0.82491    1.000
    N1793    N        0.28172    0.05836    0.91833    1.000
    N1794    N        0.23995    0.11006    0.90534    1.000
    N1795    N        0.34009    0.01462    0.93321    1.000
    Si1796   Si       0.27633    0.04305    0.87780    1.000
    N1797    N        0.42453    0.01566    0.92554    1.000
    N1798    N        0.42174    0.11529    0.90882    1.000
    Si1799   Si       0.37970    0.10086    0.90611    1.000
    Si1800   Si       0.41510    0.03883    0.88723    1.000
    N1801    N        0.37908    0.06415    0.88382    1.000
    N1802    N        0.45254    0.06173    0.88221    1.000
    Si1803   Si       0.29499    0.22188    0.90733    1.000
    Si1804   Si       0.26128    0.14387    0.89159    1.000
    N1805    N        0.26722    0.16932    0.92444    1.000
    N1806    N        0.32603    0.19538    0.92177    1.000
    N1807    N        0.36162    0.13878    0.89536    1.000
    N1808    N        0.38094    0.22877    0.89197    1.000
    Si1809   Si       0.42204    0.21888    0.90844    1.000
    Si1810   Si       0.36569    0.17370    0.92054    1.000
    N1811    N        0.40779    0.18210    0.92390    1.000
    N1812    N        0.47405    0.15981    0.92931    1.000
    N1813    N        0.32313    0.05604    0.97651    1.000
    Si1814   Si       0.33597    0.09958    0.96950    1.000
    Si1815   Si       0.30360    0.03456    0.94420    1.000
    N1816    N        0.30511    0.11811    0.94693    1.000
    N1817    N        0.24601    0.08611    0.97252    1.000
    Si1818   Si       0.36262    0.04242    0.96032    1.000
    Si1819   Si       0.26811    0.09497    0.93606    1.000
    N1820    N        0.36926    0.08472    0.94542    1.000
    N1821    N        0.39170    0.02418    0.98601    1.000
    N1822    N        0.44488    0.06738    0.97572    1.000
    Si1823   Si       0.43141    0.02743    0.96701    1.000
    N1824    N        0.48398    0.11828    0.99038    1.000
    Si1825   Si       0.48932    0.07808    0.97277    1.000
    N1826    N        0.35559    0.15572    0.95929    1.000
    Si1827   Si       0.30895    0.16184    0.94590    1.000
    N1828    N        0.29320    0.17016    0.98540    1.000
    N1829    N        0.26002    0.23405    0.93633    1.000
    Si1830   Si       0.41053    0.25674    0.97309    1.000
    N1831    N        0.43606    0.24455    0.94152    1.000
    N1832    N        0.47512    0.19104    0.99201    1.000
    N1833    N        0.41904    0.13339    0.97624    1.000
    Si1834   Si       0.38020    0.14313    0.99185    1.000
    Si1835   Si       0.43156    0.14719    0.93410    1.000
    N1836    N        0.30448    0.33854    0.01439    1.000
    N1837    N        0.34739    0.28689    0.01333    1.000
    N1838    N        0.24336    0.37264    0.03392    1.000
    Si1839   Si       0.28013    0.35147    0.04682    1.000
    N1840    N        0.29495    0.25832    0.05203    1.000
    Si1841   Si       0.38311    0.30918    0.01433    1.000
    Si1842   Si       0.44628    0.27977    0.03532    1.000
    N1843    N        0.47983    0.30989    0.03258    1.000
    N1844    N        0.42101    0.28842    0.00154    1.000
    Si1845   Si       0.32011    0.41181    0.05060    1.000
    N1846    N        0.36051    0.38708    0.04302    1.000
    Si1847   Si       0.28478    0.45024    0.01435    1.000
    N1848    N        0.32125    0.43039    0.00739    1.000
    N1849    N        0.29256    0.49142    0.00660    1.000
    N1850    N        0.24968    0.43114    0.99971    1.000
    N1851    N        0.35869    0.49827    0.99455    1.000
    N1852    N        0.38824    0.45037    0.02144    1.000
    N1853    N        0.47507    0.41317    0.01635    1.000
    Si1854   Si       0.38651    0.49274    0.03543    1.000
    Si1855   Si       0.29431    0.29206    0.08047    1.000
    N1856    N        0.32724    0.31710    0.08171    1.000
    Si1857   Si       0.34950    0.35139    0.06846    1.000
    N1858    N        0.26101    0.31435    0.06264    1.000
    N1859    N        0.30462    0.37618    0.07369    1.000
    N1860    N        0.35834    0.36623    0.11066    1.000
    N1861    N        0.41737    0.26686    0.06888    1.000
    Si1862   Si       0.39780    0.30097    0.08774    1.000
    N1863    N        0.37382    0.27434    0.11157    1.000
    N1864    N        0.38501    0.32464    0.05409    1.000
    N1865    N        0.47249    0.26359    0.11269    1.000
    N1866    N        0.42320    0.32510    0.11357    1.000
    N1867    N        0.33387    0.49523    0.10893    1.000
    N1868    N        0.34614    0.43802    0.07365    1.000
    N1869    N        0.28234    0.43512    0.05555    1.000
    N1870    N        0.24859    0.46539    0.11216    1.000
    Si1871   Si       0.38369    0.42250    0.05293    1.000
    Si1872   Si       0.43945    0.48417    0.08641    1.000
    N1873    N        0.46456    0.45981    0.06336    1.000
    N1874    N        0.39678    0.48877    0.07902    1.000
    N1875    N        0.41889    0.41558    0.07544    1.000
    Si1876   Si       0.45939    0.41746    0.05861    1.000
    N1877    N        0.28889    0.35299    0.14251    1.000
    Si1878   Si       0.29654    0.31171    0.15463    1.000
    Si1879   Si       0.25237    0.36660    0.16180    1.000
    N1880    N        0.28503    0.28386    0.12240    1.000
    Si1881   Si       0.35333    0.26499    0.14827    1.000
    N1882    N        0.33752    0.30302    0.16583    1.000
    Si1883   Si       0.31662    0.37913    0.11761    1.000
    Si1884   Si       0.39543    0.35466    0.12818    1.000
    N1885    N        0.47933    0.31985    0.15888    1.000
    Si1886   Si       0.46348    0.30935    0.11842    1.000
    N1887    N        0.39200    0.34571    0.17058    1.000
    N1888    N        0.30730    0.42027    0.12942    1.000
    Si1889   Si       0.26631    0.43625    0.14196    1.000
    Si1890   Si       0.33630    0.45121    0.11360    1.000
    N1891    N        0.32320    0.47969    0.17012    1.000
    N1892    N        0.43767    0.46200    0.12299    1.000
    N1893    N        0.39421    0.50694    0.15848    1.000
    Si1894   Si       0.41077    0.42813    0.11795    1.000
    N1895    N        0.41661    0.39046    0.13847    1.000
    Si1896   Si       0.43478    0.48977    0.15666    1.000
    N1897    N        0.37298    0.44743    0.13487    1.000
    Si1898   Si       0.36647    0.47398    0.16852    1.000
    N1899    N        0.27100    0.30414    0.18889    1.000
    N1900    N        0.26382    0.37253    0.20467    1.000
    Si1901   Si       0.26076    0.33083    0.22041    1.000
    N1902    N        0.35167    0.35381    0.22424    1.000
    Si1903   Si       0.25072    0.26443    0.19211    1.000
    Si1904   Si       0.36186    0.32446    0.19392    1.000
    Si1905   Si       0.36643    0.25907    0.22226    1.000
    N1906    N        0.45354    0.36989    0.19776    1.000
    Si1907   Si       0.48286    0.28951    0.18902    1.000
    N1908    N        0.46507    0.30854    0.22540    1.000
    N1909    N        0.38052    0.29851    0.22506    1.000
    Si1910   Si       0.48839    0.35825    0.17514    1.000
    Si1911   Si       0.41444    0.38072    0.18031    1.000
    Si1912   Si       0.35410    0.39842    0.22337    1.000
    N1913    N        0.26454    0.45345    0.18169    1.000
    Si1914   Si       0.30299    0.45680    0.20364    1.000
    N1915    N        0.31532    0.41597    0.21376    1.000
    N1916    N        0.37345    0.47089    0.21190    1.000
    N1917    N        0.44051    0.46752    0.19370    1.000
    Si1918   Si       0.40855    0.44626    0.21429    1.000
    Si1919   Si       0.46190    0.49025    0.22294    1.000
    N1920    N        0.39001    0.40899    0.20096    1.000
    Si1921   Si       0.32223    0.34522    0.25802    1.000
    N1922    N        0.28953    0.31672    0.25110    1.000
    Si1923   Si       0.29072    0.27325    0.25318    1.000
    N1924    N        0.35443    0.33356    0.28465    1.000
    N1925    N        0.30026    0.37852    0.27176    1.000
    N1926    N        0.32574    0.25311    0.24087    1.000
    Si1927   Si       0.38343    0.33314    0.25243    1.000
    Si1928   Si       0.46799    0.28049    0.25602    1.000
    N1929    N        0.41621    0.35925    0.25805    1.000
    Si1930   Si       0.45570    0.34938    0.23678    1.000
    N1931    N        0.48315    0.35317    0.26920    1.000
    N1932    N        0.26016    0.43853    0.24489    1.000
    Si1933   Si       0.28135    0.46559    0.27346    1.000
    Si1934   Si       0.35039    0.49584    0.23760    1.000
    N1935    N        0.30894    0.48331    0.23902    1.000
    Si1936   Si       0.27921    0.39847    0.23708    1.000
    N1937    N        0.36355    0.40415    0.26739    1.000
    N1938    N        0.43339    0.49699    0.25479    1.000
    N1939    N        0.42534    0.43135    0.25333    1.000
    Si1940   Si       0.40499    0.39901    0.27374    1.000
    Si1941   Si       0.45125    0.45933    0.27256    1.000
    N1942    N        0.36786    0.49220    0.27782    1.000
    N1943    N        0.48666    0.46198    0.24555    1.000
    Si1944   Si       0.25273    0.28931    0.31390    1.000
    Si1945   Si       0.35728    0.31909    0.32465    1.000
    Si1946   Si       0.26547    0.36602    0.29501    1.000
    N1947    N        0.24940    0.33159    0.31218    1.000
    N1948    N        0.28027    0.26240    0.29316    1.000
    N1949    N        0.32001    0.32729    0.34621    1.000
    N1950    N        0.44941    0.34975    0.33360    1.000
    Si1951   Si       0.41978    0.27553    0.31647    1.000
    N1952    N        0.37590    0.28089    0.31855    1.000
    Si1953   Si       0.47105    0.32821    0.30281    1.000
    N1954    N        0.44630    0.29519    0.29015    1.000
    Si1955   Si       0.32862    0.40185    0.29655    1.000
    N1956    N        0.31245    0.50251    0.32397    1.000
    N1957    N        0.27679    0.38640    0.33182    1.000
    N1958    N        0.34118    0.39787    0.33644    1.000
    Si1959   Si       0.26793    0.42919    0.33835    1.000
    Si1960   Si       0.34075    0.47392    0.30745    1.000
    N1961    N        0.24918    0.44699    0.30587    1.000
    N1962    N        0.31524    0.44402    0.29077    1.000
    N1963    N        0.36524    0.45928    0.34179    1.000
    Si1964   Si       0.44801    0.49486    0.34113    1.000
    N1965    N        0.41770    0.40974    0.31607    1.000
    N1966    N        0.46496    0.46668    0.31277    1.000
    Si1967   Si       0.45496    0.39121    0.33107    1.000
    N1968    N        0.48903    0.40624    0.30793    1.000
    Si1969   Si       0.40266    0.43609    0.34774    1.000
    N1970    N        0.26714    0.34723    0.38496    1.000
    Si1971   Si       0.30377    0.29302    0.36946    1.000
    Si1972   Si       0.29957    0.36324    0.36124    1.000
    N1973    N        0.26407    0.28503    0.35649    1.000
    Si1974   Si       0.36229    0.37605    0.36944    1.000
    Si1975   Si       0.42524    0.32816    0.36294    1.000
    Si1976   Si       0.47410    0.26969    0.36942    1.000
    N1977    N        0.43303    0.28469    0.35719    1.000
    N1978    N        0.43051    0.34189    0.40441    1.000
    N1979    N        0.38386    0.34187    0.35594    1.000
    N1980    N        0.32432    0.37916    0.39353    1.000
    Si1981   Si       0.29360    0.49532    0.36300    1.000
    N1982    N        0.29844    0.45090    0.35799    1.000
    N1983    N        0.25380    0.49751    0.37911    1.000
    Si1984   Si       0.33799    0.43387    0.36507    1.000
    N1985    N        0.31735    0.50017    0.40003    1.000
    N1986    N        0.46474    0.40096    0.37395    1.000
    N1987    N        0.38713    0.40867    0.37855    1.000
    N1988    N        0.48466    0.50698    0.36033    1.000
    Si1989   Si       0.42775    0.48852    0.40446    1.000
    N1990    N        0.42839    0.46326    0.36819    1.000
    Si1991   Si       0.26140    0.35542    0.42698    1.000
    Si1992   Si       0.32215    0.27121    0.44994    1.000
    N1993    N        0.24674    0.32245    0.44669    1.000
    N1994    N        0.29058    0.37923    0.45398    1.000
    N1995    N        0.31685    0.28456    0.40940    1.000
    Si1996   Si       0.42382    0.31488    0.43846    1.000
    N1997    N        0.46674    0.30173    0.45393    1.000
    N1998    N        0.40595    0.27810    0.42600    1.000
    Si1999   Si       0.45167    0.37909    0.41145    1.000
    Si2000   Si       0.38602    0.25843    0.45946    1.000
    N2001    N        0.48866    0.36252    0.42919    1.000
    N2002    N        0.26728    0.50794    0.45319    1.000
    Si2003   Si       0.25671    0.41255    0.45256    1.000
    Si2004   Si       0.32050    0.40651    0.42722    1.000
    N2005    N        0.28457    0.43904    0.43565    1.000
    Si2006   Si       0.29504    0.48087    0.43266    1.000
    Si2007   Si       0.35374    0.48371    0.42298    1.000
    N2008    N        0.33029    0.48183    0.45899    1.000
    N2009    N        0.36442    0.39584    0.44587    1.000
    N2010    N        0.34292    0.44015    0.40813    1.000
    Si2011   Si       0.44974    0.44196    0.45581    1.000
    N2012    N        0.43062    0.41122    0.43271    1.000
    N2013    N        0.39635    0.46781    0.42507    1.000
    Si2014   Si       0.39040    0.42391    0.42007    1.000
    N2015    N        0.46211    0.47880    0.43127    1.000
    N2016    N        0.33939    0.35392    0.49687    1.000
    Si2017   Si       0.29930    0.37095    0.49655    1.000
    Si2018   Si       0.35015    0.31285    0.51202    1.000
    N2019    N        0.35020    0.28645    0.47714    1.000
    N2020    N        0.25031    0.27320    0.52643    1.000
    N2021    N        0.26973    0.34920    0.52008    1.000
    Si2022   Si       0.24346    0.31539    0.52353    1.000
    N2023    N        0.41177    0.27240    0.49573    1.000
    Si2024   Si       0.41752    0.31327    0.50564    1.000
    Si2025   Si       0.47558    0.28269    0.49199    1.000
    Si2026   Si       0.37737    0.37088    0.47967    1.000
    N2027    N        0.45989    0.31607    0.51798    1.000
    N2028    N        0.40415    0.33794    0.47039    1.000
    Si2029   Si       0.34720    0.49560    0.49826    1.000
    N2030    N        0.29909    0.41192    0.51224    1.000
    N2031    N        0.35831    0.45928    0.52107    1.000
    N2032    N        0.23937    0.43198    0.48708    1.000
    Si2033   Si       0.26140    0.43264    0.52569    1.000
    Si2034   Si       0.42138    0.49756    0.50114    1.000
    N2035    N        0.42221    0.45595    0.48808    1.000
    Si2036   Si       0.39631    0.43745    0.51758    1.000
    N2037    N        0.48363    0.41915    0.47285    1.000
    N2038    N        0.39841    0.39513    0.51091    1.000
    Si2039   Si       0.49024    0.41848    0.51752    1.000
    Si2040   Si       0.25688    0.36503    0.56677    1.000
    N2041    N        0.31951    0.29957    0.53768    1.000
    Si2042   Si       0.31112    0.32397    0.57617    1.000
    Si2043   Si       0.31448    0.26277    0.56186    1.000
    N2044    N        0.23870    0.32281    0.56525    1.000
    Si2045   Si       0.48021    0.34455    0.54280    1.000
    N2046    N        0.41161    0.36564    0.58029    1.000
    N2047    N        0.38807    0.32251    0.53435    1.000
    Si2048   Si       0.38969    0.32879    0.58049    1.000
    Si2049   Si       0.32427    0.43710    0.53669    1.000
    N2050    N        0.33887    0.41374    0.56974    1.000
    N2051    N        0.28689    0.46061    0.54878    1.000
    Si2052   Si       0.28517    0.49170    0.58182    1.000
    N2053    N        0.24071    0.40219    0.54836    1.000
    N2054    N        0.42797    0.49823    0.54542    1.000
    N2055    N        0.46647    0.38376    0.53395    1.000
    N2056    N        0.41829    0.43235    0.55615    1.000
    N2057    N        0.48356    0.45866    0.53356    1.000
    Si2058   Si       0.44896    0.46453    0.55945    1.000
    Si2059   Si       0.42387    0.38974    0.54561    1.000
    Si2060   Si       0.27538    0.28299    0.63017    1.000
    Si2061   Si       0.26915    0.36022    0.62933    1.000
    N2062    N        0.29996    0.28789    0.59549    1.000
    N2063    N        0.24724    0.31696    0.63514    1.000
    N2064    N        0.29463    0.36238    0.59077    1.000
    Si2065   Si       0.33470    0.37997    0.59689    1.000
    N2066    N        0.35003    0.33905    0.58612    1.000
    N2067    N        0.39668    0.28875    0.59700    1.000
    Si2068   Si       0.44437    0.36265    0.61090    1.000
    Si2069   Si       0.42524    0.29308    0.63240    1.000
    N2070    N        0.46366    0.27524    0.62231    1.000
    N2071    N        0.42196    0.33589    0.63841    1.000
    N2072    N        0.46984    0.33811    0.58478    1.000
    N2073    N        0.29554    0.47326    0.62142    1.000
    N2074    N        0.34869    0.39155    0.63536    1.000
    Si2075   Si       0.32633    0.50449    0.62733    1.000
    Si2076   Si       0.26333    0.44516    0.63823    1.000
    Si2077   Si       0.45087    0.43862    0.63228    1.000
    N2078    N        0.46488    0.39737    0.62685    1.000
    Si2079   Si       0.46012    0.50057    0.63526    1.000
    N2080    N        0.45491    0.47312    0.60097    1.000
    N2081    N        0.36657    0.49870    0.64096    1.000
    N2082    N        0.41008    0.44214    0.64546    1.000
    Si2083   Si       0.29110    0.31518    0.68783    1.000
    N2084    N        0.30347    0.28165    0.66354    1.000
    N2085    N        0.29782    0.34904    0.66217    1.000
    Si2086   Si       0.41131    0.34598    0.67929    1.000
    N2087    N        0.40906    0.27326    0.66797    1.000
    N2088    N        0.37336    0.32696    0.69180    1.000
    Si2089   Si       0.38079    0.28570    0.69995    1.000
    Si2090   Si       0.48626    0.33843    0.68907    1.000
    N2091    N        0.27913    0.40536    0.64208    1.000
    N2092    N        0.24433    0.45574    0.67543    1.000
    Si2093   Si       0.24475    0.49583    0.69244    1.000
    Si2094   Si       0.31533    0.38813    0.66304    1.000
    N2095    N        0.36225    0.44403    0.68265    1.000
    N2096    N        0.42499    0.50709    0.66341    1.000
    N2097    N        0.40351    0.38815    0.68228    1.000
    Si2098   Si       0.37958    0.41273    0.65504    1.000
    Si2099   Si       0.39225    0.47452    0.66989    1.000
    N2100    N        0.47859    0.46307    0.65422    1.000
    N2101    N        0.31518    0.32343    0.72314    1.000
    Si2102   Si       0.34855    0.35165    0.71881    1.000
    Si2103   Si       0.24253    0.30981    0.74245    1.000
    N2104    N        0.24363    0.35181    0.75236    1.000
    N2105    N        0.25256    0.30386    0.70059    1.000
    Si2106   Si       0.44485    0.29081    0.72559    1.000
    N2107    N        0.40448    0.28756    0.73693    1.000
    N2108    N        0.37018    0.34919    0.75648    1.000
    N2109    N        0.46411    0.25829    0.70377    1.000
    N2110    N        0.44635    0.32854    0.70247    1.000
    N2111    N        0.28277    0.50547    0.71136    1.000
    Si2112   Si       0.34407    0.43005    0.71884    1.000
    N2113    N        0.31823    0.45376    0.74420    1.000
    Si2114   Si       0.28994    0.48968    0.74972    1.000
    N2115    N        0.33176    0.39051    0.70671    1.000
    N2116    N        0.25196    0.46871    0.76070    1.000
    Si2117   Si       0.48753    0.39506    0.73096    1.000
    Si2118   Si       0.41340    0.42387    0.71014    1.000
    N2119    N        0.44835    0.41077    0.72931    1.000
    Si2120   Si       0.40584    0.46877    0.75725    1.000
    N2121    N        0.38338    0.42340    0.74234    1.000
    N2122    N        0.41283    0.46954    0.71240    1.000
    N2123    N        0.42203    0.51090    0.75591    1.000
    Si2124   Si       0.26487    0.36326    0.78892    1.000
    N2125    N        0.30424    0.34947    0.78709    1.000
    N2126    N        0.34457    0.29119    0.77712    1.000
    Si2127   Si       0.32902    0.37279    0.81409    1.000
    N2128    N        0.27275    0.28902    0.76629    1.000
    Si2129   Si       0.31011    0.31287    0.76493    1.000
    N2130    N        0.41098    0.31559    0.80246    1.000
    Si2131   Si       0.45305    0.29921    0.80360    1.000
    Si2132   Si       0.38342    0.30812    0.76874    1.000
    N2133    N        0.46705    0.29401    0.76217    1.000
    N2134    N        0.34674    0.40591    0.79138    1.000
    Si2135   Si       0.33600    0.44558    0.78407    1.000
    N2136    N        0.25946    0.40598    0.79220    1.000
    N2137    N        0.30717    0.45114    0.81743    1.000
    N2138    N        0.36596    0.47594    0.77945    1.000
    N2139    N        0.41351    0.38443    0.79679    1.000
    N2140    N        0.43268    0.45564    0.78928    1.000
    Si2141   Si       0.38241    0.39124    0.76917    1.000
    Si2142   Si       0.43726    0.41627    0.81102    1.000
    Si2143   Si       0.27724    0.35075    0.86021    1.000
    Si2144   Si       0.35086    0.33031    0.87137    1.000
    N2145    N        0.25175    0.34150    0.82583    1.000
    N2146    N        0.35758    0.34694    0.83163    1.000
    N2147    N        0.30799    0.32315    0.87560    1.000
    N2148    N        0.35601    0.25667    0.83557    1.000
    Si2149   Si       0.46496    0.36051    0.84987    1.000
    N2150    N        0.42209    0.35792    0.85850    1.000
    Si2151   Si       0.39906    0.35206    0.82139    1.000
    N2152    N        0.47801    0.33003    0.82053    1.000
    Si2153   Si       0.47285    0.25815    0.86355    1.000
    N2154    N        0.45298    0.26108    0.82453    1.000
    N2155    N        0.30436    0.38764    0.84723    1.000
    Si2156   Si       0.28006    0.41950    0.82758    1.000
    N2157    N        0.24973    0.43384    0.85542    1.000
    Si2158   Si       0.25027    0.47757    0.86463    1.000
    Si2159   Si       0.32582    0.46997    0.85365    1.000
    N2160    N        0.35202    0.44033    0.87361    1.000
    N2161    N        0.29036    0.48444    0.87583    1.000
    N2162    N        0.34505    0.50344    0.83659    1.000
    Si2163   Si       0.33393    0.40101    0.87953    1.000
    N2164    N        0.41968    0.43829    0.84294    1.000
    N2165    N        0.47780    0.48905    0.84006    1.000
    N2166    N        0.47145    0.39809    0.82843    1.000
    Si2167   Si       0.39632    0.44153    0.87760    1.000
    Si2168   Si       0.43553    0.47720    0.82790    1.000
    Si2169   Si       0.30558    0.30202    0.91416    1.000
    N2170    N        0.25446    0.36893    0.89214    1.000
    N2171    N        0.26507    0.30501    0.92986    1.000
    N2172    N        0.36063    0.36912    0.89194    1.000
    Si2173   Si       0.35980    0.25916    0.91336    1.000
    Si2174   Si       0.23940    0.33112    0.91022    1.000
    N2175    N        0.31652    0.25952    0.90774    1.000
    N2176    N        0.36819    0.30043    0.89838    1.000
    Si2177   Si       0.47455    0.26237    0.93232    1.000
    Si2178   Si       0.40556    0.36958    0.89597    1.000
    N2179    N        0.46758    0.28669    0.89493    1.000
    N2180    N        0.41060    0.34098    0.92893    1.000
    N2181    N        0.48384    0.35965    0.89061    1.000
    Si2182   Si       0.48954    0.32134    0.90917    1.000
    N2183    N        0.31006    0.41164    0.91558    1.000
    N2184    N        0.33933    0.49168    0.91570    1.000
    Si2185   Si       0.33182    0.44943    0.92654    1.000
    N2186    N        0.23821    0.42821    0.92472    1.000
    N2187    N        0.40643    0.48165    0.89230    1.000
    N2188    N        0.47868    0.48096    0.90726    1.000
    Si2189   Si       0.43594    0.49522    0.92220    1.000
    N2190    N        0.40955    0.41164    0.90662    1.000
    Si2191   Si       0.25720    0.27201    0.95858    1.000
    N2192    N        0.33088    0.31903    0.94536    1.000
    Si2193   Si       0.31942    0.31107    0.98749    1.000
    N2194    N        0.29269    0.27499    0.98541    1.000
    Si2195   Si       0.41880    0.35554    0.96977    1.000
    N2196    N        0.46141    0.35166    0.98067    1.000
    N2197    N        0.38186    0.33652    0.98302    1.000
    N2198    N        0.37533    0.27106    0.95160    1.000
    Si2199   Si       0.37516    0.31442    0.94239    1.000
    Si2200   Si       0.48963    0.31996    0.98941    1.000
    N2201    N        0.27215    0.38249    0.96388    1.000
    Si2202   Si       0.27215    0.48939    0.96777    1.000
    N2203    N        0.29414    0.45667    0.95176    1.000
    Si2204   Si       0.35473    0.45280    0.99258    1.000
    Si2205   Si       0.24170    0.38824    0.99417    1.000
    Si2206   Si       0.27749    0.41835    0.94294    1.000
    N2207    N        0.43799    0.46226    0.95227    1.000
    Si2208   Si       0.46518    0.39687    0.97603    1.000
    N2209    N        0.42243    0.39833    0.97085    1.000
    N2210    N        0.36556    0.43894    0.95307    1.000
    Si2211   Si       0.40960    0.43050    0.94619    1.000
    Si2212   Si       0.48002    0.45519    0.94200    1.000
    Si2213   Si       0.30310    0.58894    0.03165    1.000
    N2214    N        0.27329    0.61819    0.01802    1.000
    Si2215   Si       0.32506    0.51895    0.01658    1.000
    N2216    N        0.35502    0.52713    0.04760    1.000
    N2217    N        0.30914    0.55740    0.00251    1.000
    Si2218   Si       0.24605    0.60931    0.05105    1.000
    N2219    N        0.34087    0.59844    0.05225    1.000
    Si2220   Si       0.36884    0.56910    0.03596    1.000
    Si2221   Si       0.43791    0.60590    0.03581    1.000
    Si2222   Si       0.45631    0.53074    0.03350    1.000
    N2223    N        0.46138    0.57213    0.02172    1.000
    N2224    N        0.41907    0.51739    0.01704    1.000
    N2225    N        0.37993    0.56629    0.99373    1.000
    Si2226   Si       0.34074    0.75373    0.02893    1.000
    Si2227   Si       0.36015    0.68442    0.04205    1.000
    N2228    N        0.36249    0.68540    0.99758    1.000
    N2229    N        0.47402    0.68160    0.04273    1.000
    N2230    N        0.37333    0.75232    0.99939    1.000
    N2231    N        0.40140    0.67866    0.05006    1.000
    N2232    N        0.43560    0.63472    0.00214    1.000
    Si2233   Si       0.43572    0.67669    0.02087    1.000
    Si2234   Si       0.34231    0.62347    0.08821    1.000
    Si2235   Si       0.25648    0.55905    0.09840    1.000
    N2236    N        0.27479    0.57799    0.06395    1.000
    Si2237   Si       0.26886    0.62808    0.11017    1.000
    Si2238   Si       0.36440    0.51586    0.08898    1.000
    N2239    N        0.45437    0.52509    0.07654    1.000
    Si2240   Si       0.40240    0.58574    0.09821    1.000
    N2241    N        0.38402    0.62489    0.10275    1.000
    N2242    N        0.44342    0.62962    0.07146    1.000
    N2243    N        0.37691    0.55223    0.11137    1.000
    N2244    N        0.40561    0.57972    0.05565    1.000
    N2245    N        0.33688    0.66336    0.07253    1.000
    Si2246   Si       0.33136    0.70249    0.09485    1.000
    N2247    N        0.25072    0.64679    0.07564    1.000
    N2248    N        0.34451    0.72210    0.05725    1.000
    Si2249   Si       0.48279    0.65116    0.07076    1.000
    Si2250   Si       0.41019    0.65575    0.08510    1.000
    N2251    N        0.40163    0.74505    0.08775    1.000
    N2252    N        0.47576    0.73525    0.11392    1.000
    N2253    N        0.27372    0.52634    0.12934    1.000
    Si2254   Si       0.31289    0.51440    0.14404    1.000
    N2255    N        0.33285    0.54737    0.16413    1.000
    N2256    N        0.31027    0.62029    0.11629    1.000
    N2257    N        0.43847    0.57746    0.12000    1.000
    Si2258   Si       0.37641    0.54634    0.15490    1.000
    Si2259   Si       0.43402    0.59304    0.15905    1.000
    N2260    N        0.46648    0.51879    0.14507    1.000
    Si2261   Si       0.46764    0.54639    0.11193    1.000
    Si2262   Si       0.30762    0.63667    0.15750    1.000
    Si2263   Si       0.31986    0.74540    0.14609    1.000
    N2264    N        0.27054    0.65962    0.14085    1.000
    Si2265   Si       0.26344    0.70322    0.13466    1.000
    N2266    N        0.29976    0.71739    0.12016    1.000
    N2267    N        0.36142    0.69829    0.12611    1.000
    N2268    N        0.24351    0.71551    0.17333    1.000
    N2269    N        0.46880    0.68709    0.16930    1.000
    N2270    N        0.42008    0.75478    0.14324    1.000
    Si2271   Si       0.39955    0.71906    0.12503    1.000
    Si2272   Si       0.46795    0.69324    0.12767    1.000
    N2273    N        0.42636    0.68577    0.11444    1.000
    Si2274   Si       0.31872    0.56835    0.20235    1.000
    Si2275   Si       0.25791    0.58219    0.19862    1.000
    N2276    N        0.28090    0.55340    0.22019    1.000
    N2277    N        0.29340    0.60691    0.18421    1.000
    N2278    N        0.34717    0.60083    0.21917    1.000
    Si2279   Si       0.38605    0.61082    0.19924    1.000
    N2280    N        0.39861    0.57428    0.17798    1.000
    N2281    N        0.47569    0.58701    0.17203    1.000
    N2282    N        0.48462    0.52081    0.20767    1.000
    Si2283   Si       0.48872    0.56553    0.20754    1.000
    Si2284   Si       0.31766    0.63724    0.22045    1.000
    N2285    N        0.33555    0.65639    0.18235    1.000
    N2286    N        0.33916    0.72873    0.18117    1.000
    N2287    N        0.27548    0.66435    0.21957    1.000
    Si2288   Si       0.33941    0.75284    0.21895    1.000
    Si2289   Si       0.24248    0.69256    0.21079    1.000
    N2290    N        0.29691    0.75201    0.22980    1.000
    Si2291   Si       0.35855    0.69170    0.17125    1.000
    N2292    N        0.45865    0.66127    0.22510    1.000
    N2293    N        0.41706    0.63180    0.17391    1.000
    Si2294   Si       0.43392    0.67159    0.18983    1.000
    Si2295   Si       0.40387    0.73614    0.21359    1.000
    N2296    N        0.40053    0.69896    0.18594    1.000
    N2297    N        0.29509    0.61520    0.25793    1.000
    Si2298   Si       0.29637    0.53101    0.25450    1.000
    Si2299   Si       0.35252    0.57202    0.25950    1.000
    N2300    N        0.31893    0.55739    0.28632    1.000
    N2301    N        0.26468    0.50901    0.27196    1.000
    N2302    N        0.33975    0.53664    0.23156    1.000
    N2303    N        0.40492    0.62170    0.23817    1.000
    Si2304   Si       0.42158    0.58615    0.25649    1.000
    N2305    N        0.39331    0.55533    0.26494    1.000
    N2306    N        0.46181    0.57569    0.24079    1.000
    Si2307   Si       0.40331    0.51622    0.28128    1.000
    Si2308   Si       0.48309    0.58328    0.27819    1.000
    Si2309   Si       0.25884    0.63694    0.24771    1.000
    N2310    N        0.33835    0.66408    0.25080    1.000
    Si2311   Si       0.28657    0.75102    0.27157    1.000
    Si2312   Si       0.31748    0.68296    0.28387    1.000
    N2313    N        0.28227    0.70760    0.28101    1.000
    Si2314   Si       0.44077    0.64561    0.26221    1.000
    Si2315   Si       0.43804    0.75301    0.27222    1.000
    N2316    N        0.37198    0.73014    0.24254    1.000
    N2317    N        0.40114    0.66834    0.28212    1.000
    N2318    N        0.47809    0.74294    0.28103    1.000
    Si2319   Si       0.47280    0.70388    0.25135    1.000
    Si2320   Si       0.37279    0.64071    0.26317    1.000
    Si2321   Si       0.38397    0.70903    0.27663    1.000
    N2322    N        0.46398    0.67639    0.28463    1.000
    N2323    N        0.43776    0.72532    0.23786    1.000
    Si2324   Si       0.31718    0.54682    0.32857    1.000
    N2325    N        0.31920    0.59234    0.33895    1.000
    Si2326   Si       0.31215    0.60745    0.29634    1.000
    Si2327   Si       0.35991    0.60841    0.33572    1.000
    N2328    N        0.35800    0.60977    0.28930    1.000
    Si2329   Si       0.43818    0.60546    0.33259    1.000
    N2330    N        0.41549    0.51646    0.32232    1.000
    N2331    N        0.39820    0.58880    0.34298    1.000
    N2332    N        0.44289    0.60696    0.28882    1.000
    N2333    N        0.48913    0.55189    0.30469    1.000
    Si2334   Si       0.34930    0.72051    0.34369    1.000
    N2335    N        0.31029    0.64863    0.31219    1.000
    N2336    N        0.34772    0.70806    0.30197    1.000
    Si2337   Si       0.43207    0.68473    0.31252    1.000
    N2338    N        0.41483    0.72775    0.30242    1.000
    N2339    N        0.43230    0.64748    0.33760    1.000
    Si2340   Si       0.42034    0.73358    0.34781    1.000
    Si2341   Si       0.29059    0.58762    0.37518    1.000
    Si2342   Si       0.33571    0.54035    0.39472    1.000
    N2343    N        0.28747    0.54319    0.36183    1.000
    N2344    N        0.24801    0.58368    0.38416    1.000
    N2345    N        0.35583    0.54029    0.35689    1.000
    N2346    N        0.42404    0.52944    0.38642    1.000
    N2347    N        0.46227    0.57961    0.35995    1.000
    Si2348   Si       0.44609    0.56394    0.39930    1.000
    Si2349   Si       0.39839    0.54439    0.35338    1.000
    N2350    N        0.29266    0.63348    0.38136    1.000
    Si2351   Si       0.31672    0.65631    0.35420    1.000
    Si2352   Si       0.28360    0.72019    0.38233    1.000
    N2353    N        0.31607    0.70058    0.36139    1.000
    N2354    N        0.35750    0.64315    0.35930    1.000
    N2355    N        0.24270    0.71560    0.37050    1.000
    N2356    N        0.38694    0.70648    0.36042    1.000
    N2357    N        0.45370    0.70597    0.35184    1.000
    Si2358   Si       0.38047    0.67198    0.38529    1.000
    N2359    N        0.42077    0.66344    0.40212    1.000
    Si2360   Si       0.45075    0.66567    0.37254    1.000
    Si2361   Si       0.31991    0.59226    0.44857    1.000
    N2362    N        0.31748    0.57488    0.40928    1.000
    N2363    N        0.36801    0.52843    0.42402    1.000
    Si2364   Si       0.47959    0.51310    0.45242    1.000
    N2365    N        0.43805    0.59989    0.41815    1.000
    N2366    N        0.47599    0.54892    0.42882    1.000
    Si2367   Si       0.46198    0.59267    0.45713    1.000
    Si2368   Si       0.38423    0.54815    0.45831    1.000
    N2369    N        0.31282    0.63507    0.44987    1.000
    Si2370   Si       0.34885    0.65778    0.45261    1.000
    Si2371   Si       0.32530    0.71062    0.43217    1.000
    N2372    N        0.28616    0.69586    0.42006    1.000
    N2373    N        0.34811    0.74469    0.44110    1.000
    Si2374   Si       0.28441    0.65245    0.41999    1.000
    N2375    N        0.35360    0.68158    0.41687    1.000
    N2376    N        0.24046    0.65023    0.41956    1.000
    N2377    N        0.38746    0.63862    0.45834    1.000
    Si2378   Si       0.42551    0.63814    0.43662    1.000
    N2379    N        0.41348    0.73253    0.46380    1.000
    N2380    N        0.45677    0.63656    0.46555    1.000
    Si2381   Si       0.25482    0.58539    0.49490    1.000
    Si2382   Si       0.28487    0.53046    0.48602    1.000
    N2383    N        0.31881    0.52339    0.51324    1.000
    N2384    N        0.24910    0.54330    0.50782    1.000
    N2385    N        0.26657    0.61541    0.52182    1.000
    N2386    N        0.35640    0.58065    0.47096    1.000
    N2387    N        0.28822    0.57198    0.47003    1.000
    N2388    N        0.38452    0.51486    0.48693    1.000
    Si2389   Si       0.47399    0.54898    0.51775    1.000
    Si2390   Si       0.39124    0.60445    0.48431    1.000
    N2391    N        0.45763    0.51678    0.49034    1.000
    N2392    N        0.48335    0.58614    0.49491    1.000
    N2393    N        0.41876    0.57279    0.46939    1.000
    N2394    N        0.38703    0.61848    0.52361    1.000
    N2395    N        0.36286    0.75612    0.51007    1.000
    N2396    N        0.33323    0.69255    0.47662    1.000
    Si2397   Si       0.31374    0.68933    0.51472    1.000
    Si2398   Si       0.24532    0.65343    0.51568    1.000
    N2399    N        0.27132    0.68894    0.51769    1.000
    Si2400   Si       0.24693    0.72247    0.52229    1.000
    Si2401   Si       0.42892    0.71351    0.49978    1.000
    Si2402   Si       0.36749    0.72535    0.47691    1.000
    N2403    N        0.46786    0.69897    0.49824    1.000
    N2404    N        0.38791    0.69720    0.51311    1.000
    Si2405   Si       0.48553    0.66631    0.47656    1.000
    N2406    N        0.33193    0.58450    0.55435    1.000
    Si2407   Si       0.33650    0.54108    0.55021    1.000
    Si2408   Si       0.30489    0.61845    0.54678    1.000
    N2409    N        0.27750    0.62300    0.58234    1.000
    Si2410   Si       0.23960    0.61134    0.56190    1.000
    N2411    N        0.32290    0.51505    0.58383    1.000
    N2412    N        0.37962    0.54743    0.55612    1.000
    N2413    N        0.44907    0.56131    0.54909    1.000
    Si2414   Si       0.42045    0.53514    0.56700    1.000
    Si2415   Si       0.37702    0.59289    0.55779    1.000
    Si2416   Si       0.45352    0.59580    0.57350    1.000
    N2417    N        0.47205    0.62798    0.54905    1.000
    N2418    N        0.32544    0.71264    0.54969    1.000
    Si2419   Si       0.29069    0.73117    0.56830    1.000
    N2420    N        0.26574    0.75634    0.54204    1.000
    N2421    N        0.32830    0.64916    0.52977    1.000
    N2422    N        0.42650    0.74336    0.52928    1.000
    Si2423   Si       0.38516    0.73449    0.54058    1.000
    N2424    N        0.37986    0.66621    0.57187    1.000
    N2425    N        0.48517    0.70266    0.56508    1.000
    Si2426   Si       0.48228    0.66052    0.57820    1.000
    Si2427   Si       0.37267    0.65911    0.53028    1.000
    N2428    N        0.37777    0.73511    0.58242    1.000
    Si2429   Si       0.28290    0.62138    0.62434    1.000
    Si2430   Si       0.26503    0.54443    0.63083    1.000
    N2431    N        0.25782    0.52631    0.59143    1.000
    N2432    N        0.25833    0.58743    0.63466    1.000
    N2433    N        0.32165    0.60714    0.63167    1.000
    N2434    N        0.42883    0.53637    0.60905    1.000
    N2435    N        0.48116    0.59415    0.60854    1.000
    Si2436   Si       0.39749    0.53099    0.63765    1.000
    N2437    N        0.41182    0.60376    0.58343    1.000
    N2438    N        0.33505    0.69083    0.62057    1.000
    Si2439   Si       0.29052    0.69446    0.62957    1.000
    N2440    N        0.26995    0.69975    0.59095    1.000
    Si2441   Si       0.35285    0.69922    0.58221    1.000
    Si2442   Si       0.48160    0.73042    0.59783    1.000
    N2443    N        0.40722    0.70550    0.63841    1.000
    N2444    N        0.44416    0.75190    0.59205    1.000
    N2445    N        0.38790    0.64175    0.63721    1.000
    Si2446   Si       0.40687    0.74306    0.61453    1.000
    N2447    N        0.47789    0.71094    0.63958    1.000
    N2448    N        0.44745    0.65847    0.60479    1.000
    Si2449   Si       0.40660    0.64506    0.59758    1.000
    Si2450   Si       0.33380    0.57251    0.65276    1.000
    Si2451   Si       0.29611    0.54204    0.69407    1.000
    N2452    N        0.30390    0.53683    0.65019    1.000
    N2453    N        0.32840    0.57252    0.69630    1.000
    N2454    N        0.26020    0.56722    0.70158    1.000
    Si2455   Si       0.39781    0.60473    0.65512    1.000
    N2456    N        0.43906    0.59696    0.66012    1.000
    Si2457   Si       0.46453    0.62246    0.69026    1.000
    N2458    N        0.38723    0.61331    0.69759    1.000
    N2459    N        0.37611    0.56726    0.64289    1.000
    Si2460   Si       0.47196    0.57162    0.64634    1.000
    N2461    N        0.28925    0.72817    0.65491    1.000
    Si2462   Si       0.28134    0.72724    0.69746    1.000
    Si2463   Si       0.26641    0.65735    0.69071    1.000
    N2464    N        0.27886    0.65775    0.64848    1.000
    Si2465   Si       0.37020    0.68134    0.64645    1.000
    N2466    N        0.36510    0.67746    0.69115    1.000
    N2467    N        0.43816    0.66066    0.68271    1.000
    Si2468   Si       0.44341    0.68280    0.64415    1.000
    Si2469   Si       0.31240    0.60660    0.73003    1.000
    N2470    N        0.35067    0.59809    0.75089    1.000
    Si2471   Si       0.24585    0.56996    0.74236    1.000
    N2472    N        0.28441    0.58573    0.75604    1.000
    Si2473   Si       0.36676    0.57892    0.71650    1.000
    N2474    N        0.45391    0.61165    0.73135    1.000
    Si2475   Si       0.45631    0.57069    0.74746    1.000
    N2476    N        0.45921    0.54311    0.71476    1.000
    Si2477   Si       0.42601    0.51519    0.71152    1.000
    N2478    N        0.38924    0.54233    0.71019    1.000
    N2479    N        0.30286    0.64524    0.71172    1.000
    N2480    N        0.31648    0.71854    0.72255    1.000
    Si2481   Si       0.33304    0.67790    0.72130    1.000
    Si2482   Si       0.33932    0.75067    0.74321    1.000
    N2483    N        0.24929    0.69890    0.70491    1.000
    N2484    N        0.40559    0.65669    0.74742    1.000
    Si2485   Si       0.44714    0.64451    0.75901    1.000
    N2486    N        0.47450    0.67765    0.75374    1.000
    Si2487   Si       0.39861    0.65383    0.70451    1.000
    N2488    N        0.37960    0.74427    0.75893    1.000
    Si2489   Si       0.29407    0.56061    0.78999    1.000
    N2490    N        0.30903    0.52072    0.77619    1.000
    N2491    N        0.31893    0.58861    0.81255    1.000
    Si2492   Si       0.35816    0.58886    0.79138    1.000
    Si2493   Si       0.34752    0.51195    0.79380    1.000
    N2494    N        0.37208    0.54906    0.79379    1.000
    N2495    N        0.43352    0.57139    0.78347    1.000
    N2496    N        0.37834    0.62200    0.81079    1.000
    Si2497   Si       0.41318    0.53348    0.79112    1.000
    Si2498   Si       0.44939    0.59435    0.81586    1.000
    N2499    N        0.45376    0.63492    0.80060    1.000
    N2500    N        0.25897    0.74196    0.80486    1.000
    Si2501   Si       0.31359    0.68072    0.79592    1.000
    N2502    N        0.27255    0.67780    0.78672    1.000
    N2503    N        0.32733    0.72104    0.79770    1.000
    Si2504   Si       0.29929    0.75373    0.80213    1.000
    N2505    N        0.33977    0.66420    0.76280    1.000
    N2506    N        0.46971    0.70486    0.81651    1.000
    Si2507   Si       0.37835    0.65492    0.78138    1.000
    Si2508   Si       0.37056    0.72794    0.79830    1.000
    N2509    N        0.38532    0.68993    0.80953    1.000
    Si2510   Si       0.47497    0.71704    0.77293    1.000
    N2511    N        0.45672    0.75560    0.75905    1.000
    Si2512   Si       0.27245    0.56850    0.86246    1.000
    Si2513   Si       0.31759    0.61910    0.84514    1.000
    N2514    N        0.34876    0.60543    0.87216    1.000
    N2515    N        0.27945    0.61060    0.86924    1.000
    N2516    N        0.26545    0.55321    0.82246    1.000
    N2517    N        0.42270    0.58654    0.85056    1.000
    Si2518   Si       0.38924    0.61373    0.85441    1.000
    Si2519   Si       0.41432    0.54453    0.86384    1.000
    N2520    N        0.42011    0.51588    0.83007    1.000
    Si2521   Si       0.47684    0.51182    0.87633    1.000
    N2522    N        0.48901    0.57436    0.82384    1.000
    N2523    N        0.32551    0.65952    0.83401    1.000
    N2524    N        0.24998    0.73624    0.86960    1.000
    N2525    N        0.36020    0.71206    0.87130    1.000
    Si2526   Si       0.36542    0.67625    0.84677    1.000
    Si2527   Si       0.48020    0.66237    0.82082    1.000
    N2528    N        0.39040    0.75441    0.82699    1.000
    N2529    N        0.43143    0.71317    0.87188    1.000
    N2530    N        0.39656    0.65337    0.86750    1.000
    N2531    N        0.46835    0.65509    0.86378    1.000
    Si2532   Si       0.39571    0.73717    0.86532    1.000
    Si2533   Si       0.46707    0.72885    0.85173    1.000
    Si2534   Si       0.34361    0.56948    0.89480    1.000
    N2535    N        0.30539    0.55080    0.88421    1.000
    Si2536   Si       0.30119    0.51176    0.90536    1.000
    Si2537   Si       0.37730    0.50928    0.90900    1.000
    N2538    N        0.44592    0.53569    0.89539    1.000
    Si2539   Si       0.46742    0.56190    0.92518    1.000
    N2540    N        0.37674    0.54505    0.88431    1.000
    N2541    N        0.47886    0.59329    0.89644    1.000
    Si2542   Si       0.24631    0.63393    0.88426    1.000
    N2543    N        0.30692    0.71947    0.90896    1.000
    N2544    N        0.33695    0.67016    0.93111    1.000
    Si2545   Si       0.29418    0.67772    0.91929    1.000
    N2546    N        0.26064    0.67188    0.89185    1.000
    Si2547   Si       0.34874    0.70709    0.91370    1.000
    Si2548   Si       0.29181    0.74669    0.87931    1.000
    N2549    N        0.44108    0.65169    0.92340    1.000
    Si2550   Si       0.47634    0.63540    0.90300    1.000
    Si2551   Si       0.43223    0.67063    0.88406    1.000
    N2552    N        0.27214    0.59206    0.95411    1.000
    N2553    N        0.32573    0.62116    0.98017    1.000
    Si2554   Si       0.30141    0.56145    0.95921    1.000
    Si2555   Si       0.28311    0.62867    0.97636    1.000
    N2556    N        0.28802    0.52316    0.94539    1.000
    Si2557   Si       0.35855    0.59379    0.96828    1.000
    N2558    N        0.33657    0.57420    0.93794    1.000
    Si2559   Si       0.48342    0.58079    0.98568    1.000
    N2560    N        0.45242    0.59162    0.95557    1.000
    Si2561   Si       0.39190    0.52624    0.98228    1.000
    N2562    N        0.40408    0.51849    0.94295    1.000
    N2563    N        0.38544    0.62880    0.95847    1.000
    Si2564   Si       0.35212    0.65623    0.96801    1.000
    N2565    N        0.27374    0.66707    0.95639    1.000
    N2566    N        0.25516    0.72175    0.99551    1.000
    Si2567   Si       0.24106    0.69380    0.96472    1.000
    Si2568   Si       0.42925    0.62942    0.95859    1.000
    Si2569   Si       0.38752    0.71636    0.98114    1.000
    N2570    N        0.43020    0.71111    0.99159    1.000
    Si2571   Si       0.46541    0.73263    0.97585    1.000
    N2572    N        0.48549    0.71613    0.94185    1.000
    N2573    N        0.38271    0.72012    0.93995    1.000
    N2574    N        0.30043    0.83890    0.01491    1.000
    Si2575   Si       0.26073    0.85967    0.01299    1.000
    Si2576   Si       0.31157    0.80684    0.04164    1.000
    Si2577   Si       0.33791    0.85774    0.00650    1.000
    N2578    N        0.29937    0.76758    0.02752    1.000
    N2579    N        0.35829    0.86199    0.04490    1.000
    N2580    N        0.35340    0.79013    0.04786    1.000
    Si2581   Si       0.26680    0.76267    0.99891    1.000
    N2582    N        0.23928    0.84658    0.04839    1.000
    N2583    N        0.41424    0.81146    0.02944    1.000
    Si2584   Si       0.38743    0.79383    0.00071    1.000
    N2585    N        0.48761    0.80813    0.03477    1.000
    Si2586   Si       0.45075    0.82118    0.05398    1.000
    N2587    N        0.30345    0.96121    0.00589    1.000
    Si2588   Si       0.32740    0.96504    0.04224    1.000
    Si2589   Si       0.29936    0.91944    0.00905    1.000
    N2590    N        0.25924    0.90131    0.00759    1.000
    Si2591   Si       0.27164    0.99066    0.99976    1.000
    N2592    N        0.31690    0.92217    0.05117    1.000
    Si2593   Si       0.39451    0.94721    0.03265    1.000
    N2594    N        0.36796    0.98051    0.03964    1.000
    N2595    N        0.43480    0.96505    0.03883    1.000
    N2596    N        0.44575    0.90921    0.99418    1.000
    Si2597   Si       0.48696    0.90211    0.00467    1.000
    N2598    N        0.29547    0.81283    0.08209    1.000
    Si2599   Si       0.26014    0.83887    0.08422    1.000
    N2600    N        0.27805    0.87811    0.09544    1.000
    Si2601   Si       0.36949    0.77509    0.08595    1.000
    N2602    N        0.38125    0.81726    0.09838    1.000
    N2603    N        0.45208    0.79514    0.08845    1.000
    N2604    N        0.42720    0.85779    0.06801    1.000
    Si2605   Si       0.38884    0.83393    0.05878    1.000
    Si2606   Si       0.43970    0.75942    0.10510    1.000
    Si2607   Si       0.28055    0.91803    0.07890    1.000
    Si2608   Si       0.35042    0.89734    0.06763    1.000
    N2609    N        0.30983    0.98282    0.07807    1.000
    N2610    N        0.24682    0.93925    0.05922    1.000
    N2611    N        0.24346    0.00860    0.08302    1.000
    N2612    N        0.34152    0.89258    0.10991    1.000
    N2613    N        0.38784    0.91897    0.06386    1.000
    Si2614   Si       0.42154    0.89827    0.08319    1.000
    Si2615   Si       0.47566    0.95180    0.05466    1.000
    N2616    N        0.41846    0.00309    0.09848    1.000
    Si2617   Si       0.43351    0.00312    0.05913    1.000
    N2618    N        0.46329    0.91359    0.07510    1.000
    N2619    N        0.31871    0.83638    0.13817    1.000
    Si2620   Si       0.30610    0.87635    0.12916    1.000
    Si2621   Si       0.29166    0.80390    0.12609    1.000
    N2622    N        0.28869    0.77444    0.15828    1.000
    Si2623   Si       0.35809    0.81697    0.13526    1.000
    N2624    N        0.34770    0.77198    0.12547    1.000
    N2625    N        0.24961    0.82023    0.12150    1.000
    N2626    N        0.45791    0.81146    0.15453    1.000
    Si2627   Si       0.41901    0.79202    0.16566    1.000
    N2628    N        0.38733    0.82138    0.16801    1.000
    Si2629   Si       0.47870    0.81585    0.11480    1.000
    Si2630   Si       0.25873    0.92355    0.15511    1.000
    N2631    N        0.34624    0.95250    0.13963    1.000
    N2632    N        0.29619    0.99503    0.14378    1.000
    N2633    N        0.29499    0.90052    0.16476    1.000
    Si2634   Si       0.30931    0.96350    0.11750    1.000
    N2635    N        0.27108    0.94052    0.11605    1.000
    Si2636   Si       0.26152    0.99888    0.16991    1.000
    Si2637   Si       0.44776    0.91656    0.14890    1.000
    Si2638   Si       0.43281    0.98065    0.16886    1.000
    N2639    N        0.48500    0.89438    0.14030    1.000
    Si2640   Si       0.37051    0.91366    0.13431    1.000
    N2641    N        0.41251    0.90537    0.12627    1.000
    N2642    N        0.45500    0.95867    0.13941    1.000
    N2643    N        0.27641    0.81730    0.20882    1.000
    N2644    N        0.34185    0.79714    0.21644    1.000
    Si2645   Si       0.27573    0.77422    0.19837    1.000
    N2646    N        0.32727    0.86738    0.22334    1.000
    Si2647   Si       0.31213    0.82626    0.23065    1.000
    N2648    N        0.40820    0.77890    0.20683    1.000
    Si2649   Si       0.38215    0.81468    0.21184    1.000
    N2650    N        0.46396    0.84225    0.22242    1.000
    Si2651   Si       0.48475    0.82064    0.18776    1.000
    N2652    N        0.48876    0.78488    0.21623    1.000
    N2653    N        0.33330    0.94391    0.21227    1.000
    Si2654   Si       0.32745    0.90008    0.19501    1.000
    N2655    N        0.25063    0.95824    0.18219    1.000
    Si2656   Si       0.35369    0.96561    0.18051    1.000
    N2657    N        0.43936    0.90321    0.19015    1.000
    Si2658   Si       0.39802    0.91746    0.19980    1.000
    N2659    N        0.46544    0.98056    0.19892    1.000
    Si2660   Si       0.46462    0.88719    0.22418    1.000
    N2661    N        0.39659    0.95745    0.18063    1.000
    N2662    N        0.36637    0.89985    0.17613    1.000
    N2663    N        0.30644    0.81943    0.27294    1.000
    N2664    N        0.25068    0.77924    0.27020    1.000
    Si2665   Si       0.36071    0.87415    0.25109    1.000
    N2666    N        0.34078    0.87289    0.28870    1.000
    Si2667   Si       0.47104    0.80825    0.24914    1.000
    N2668    N        0.43417    0.79569    0.27068    1.000
    N2669    N        0.38857    0.84031    0.24561    1.000
    Si2670   Si       0.40659    0.82659    0.28333    1.000
    N2671    N        0.24316    0.89775    0.27592    1.000
    N2672    N        0.24020    0.96641    0.25057    1.000
    N2673    N        0.29954    0.93036    0.27611    1.000
    Si2674   Si       0.32418    0.95984    0.25306    1.000
    Si2675   Si       0.25644    0.93933    0.27990    1.000
    N2676    N        0.30280    0.99627    0.24580    1.000
    N2677    N        0.35720    0.96856    0.27827    1.000
    Si2678   Si       0.26042    0.00641    0.24562    1.000
    Si2679   Si       0.44995    0.99094    0.23668    1.000
    N2680    N        0.44988    0.89755    0.26547    1.000
    Si2681   Si       0.38785    0.99409    0.26371    1.000
    N2682    N        0.38949    0.90665    0.24032    1.000
    Si2683   Si       0.41557    0.92572    0.26771    1.000
    N2684    N        0.47554    0.98112    0.26899    1.000
    N2685    N        0.41643    0.96631    0.24650    1.000
    Si2686   Si       0.33517    0.83347    0.30449    1.000
    N2687    N        0.29163    0.76520    0.31332    1.000
    N2688    N        0.31394    0.82078    0.34014    1.000
    Si2689   Si       0.24617    0.87768    0.31436    1.000
    N2690    N        0.24564    0.83156    0.31733    1.000
    Si2691   Si       0.27332    0.80201    0.29797    1.000
    N2692    N        0.28592    0.88231    0.33087    1.000
    Si2693   Si       0.30998    0.77894    0.34981    1.000
    N2694    N        0.35154    0.76216    0.34483    1.000
    N2695    N        0.37124    0.81122    0.30208    1.000
    N2696    N        0.42820    0.85151    0.31304    1.000
    Si2697   Si       0.38152    0.79319    0.34008    1.000
    Si2698   Si       0.31539    0.90263    0.30602    1.000
    N2699    N        0.33871    0.92393    0.33472    1.000
    N2700    N        0.29252    0.00003    0.32913    1.000
    N2701    N        0.24413    0.94987    0.32511    1.000
    N2702    N        0.36272    0.98431    0.34467    1.000
    Si2703   Si       0.36568    0.95141    0.31873    1.000
    N2704    N        0.40363    0.93026    0.30949    1.000
    Si2705   Si       0.41880    0.92669    0.34924    1.000
    N2706    N        0.41511    0.00307    0.29845    1.000
    Si2707   Si       0.45878    0.88226    0.30540    1.000
    N2708    N        0.47988    0.98631    0.33962    1.000
    Si2709   Si       0.45838    0.99782    0.30453    1.000
    N2710    N        0.45780    0.90918    0.34069    1.000
    N2711    N        0.32723    0.87152    0.38051    1.000
    N2712    N        0.27103    0.82948    0.39507    1.000
    Si2713   Si       0.35593    0.84209    0.39557    1.000
    Si2714   Si       0.29292    0.85292    0.36237    1.000
    N2715    N        0.29183    0.76273    0.38520    1.000
    N2716    N        0.44948    0.83570    0.37898    1.000
    Si2717   Si       0.42419    0.79964    0.39262    1.000
    N2718    N        0.38655    0.82722    0.36921    1.000
    Si2719   Si       0.41796    0.85451    0.35498    1.000
    N2720    N        0.41817    0.77422    0.35497    1.000
    Si2721   Si       0.48708    0.83747    0.39914    1.000
    N2722    N        0.24255    0.89184    0.39798    1.000
    N2723    N        0.28643    0.93771    0.38000    1.000
    Si2724   Si       0.32437    0.91597    0.37446    1.000
    N2725    N        0.25141    0.99246    0.38693    1.000
    Si2726   Si       0.27088    0.97045    0.35384    1.000
    N2727    N        0.35031    0.92909    0.40821    1.000
    Si2728   Si       0.46500    0.97678    0.37949    1.000
    N2729    N        0.42276    0.96456    0.36797    1.000
    Si2730   Si       0.39662    0.00088    0.36919    1.000
    N2731    N        0.48508    0.94366    0.39673    1.000
    N2732    N        0.40295    0.89205    0.37062    1.000
    N2733    N        0.28365    0.78957    0.45567    1.000
    Si2734   Si       0.35798    0.78745    0.43923    1.000
    Si2735   Si       0.29147    0.79535    0.41290    1.000
    N2736    N        0.33356    0.80806    0.40891    1.000
    N2737    N        0.37169    0.86412    0.42923    1.000
    N2738    N        0.39752    0.79398    0.42787    1.000
    N2739    N        0.47477    0.84765    0.44077    1.000
    Si2740   Si       0.42752    0.77057    0.45017    1.000
    N2741    N        0.45408    0.77494    0.41668    1.000
    N2742    N        0.24834    0.00234    0.46058    1.000
    N2743    N        0.31206    0.99070    0.42295    1.000
    N2744    N        0.29668    0.92075    0.44773    1.000
    Si2745   Si       0.32865    0.95195    0.43842    1.000
    Si2746   Si       0.26535    0.92140    0.41712    1.000
    N2747    N        0.36061    0.96474    0.46540    1.000
    Si2748   Si       0.27276    0.00547    0.42490    1.000
    N2749    N        0.38098    0.99985    0.40976    1.000
    Si2750   Si       0.46805    0.00566    0.44670    1.000
    N2751    N        0.41095    0.92671    0.43313    1.000
    Si2752   Si       0.38496    0.90185    0.40937    1.000
    Si2753   Si       0.44432    0.93687    0.45967    1.000
    N2754    N        0.43469    0.97905    0.45326    1.000
    Si2755   Si       0.39545    0.97082    0.43910    1.000
    N2756    N        0.48251    0.91626    0.45546    1.000
    Si2757   Si       0.35504    0.79668    0.51288    1.000
    Si2758   Si       0.30238    0.81485    0.48482    1.000
    N2759    N        0.28328    0.85386    0.47600    1.000
    N2760    N        0.34711    0.81333    0.47324    1.000
    Si2761   Si       0.24097    0.84868    0.48640    1.000
    Si2762   Si       0.24421    0.77771    0.47074    1.000
    N2763    N        0.31385    0.80358    0.52493    1.000
    N2764    N        0.34561    0.88239    0.48884    1.000
    N2765    N        0.24078    0.80736    0.50216    1.000
    N2766    N        0.23235    0.87742    0.51826    1.000
    N2767    N        0.45330    0.79334    0.47716    1.000
    N2768    N        0.40967    0.84697    0.48897    1.000
    N2769    N        0.47192    0.86395    0.50245    1.000
    Si2770   Si       0.44901    0.83508    0.47465    1.000
    Si2771   Si       0.37150    0.85251    0.47100    1.000
    Si2772   Si       0.49186    0.78390    0.49141    1.000
    Si2773   Si       0.30324    0.89103    0.48078    1.000
    N2774    N        0.24914    0.95322    0.51032    1.000
    N2775    N        0.29742    0.90552    0.51974    1.000
    N2776    N        0.40225    0.99425    0.51216    1.000
    Si2777   Si       0.36382    0.97514    0.50631    1.000
    N2778    N        0.43244    0.92855    0.50296    1.000
    N2779    N        0.46506    0.99560    0.51774    1.000
    Si2780   Si       0.45001    0.89707    0.52463    1.000
    Si2781   Si       0.30435    0.79815    0.56809    1.000
    N2782    N        0.26514    0.81294    0.57255    1.000
    N2783    N        0.34863    0.87916    0.56600    1.000
    Si2784   Si       0.23954    0.79337    0.54277    1.000
    Si2785   Si       0.36259    0.84053    0.57799    1.000
    N2786    N        0.37606    0.82064    0.54252    1.000
    N2787    N        0.44299    0.81188    0.54690    1.000
    Si2788   Si       0.44951    0.77047    0.55372    1.000
    Si2789   Si       0.41488    0.83896    0.53216    1.000
    N2790    N        0.41935    0.87812    0.54876    1.000
    N2791    N        0.48823    0.76221    0.53115    1.000
    N2792    N        0.24279    0.92436    0.57089    1.000
    Si2793   Si       0.34120    0.96517    0.56328    1.000
    Si2794   Si       0.24544    0.98302    0.54282    1.000
    Si2795   Si       0.34023    0.90342    0.52908    1.000
    N2796    N        0.33190    0.99292    0.52972    1.000
    N2797    N        0.27110    0.98389    0.57793    1.000
    Si2798   Si       0.25566    0.91377    0.52823    1.000
    N2799    N        0.36121    0.93994    0.53415    1.000
    N2800    N        0.43232    0.95654    0.56797    1.000
    N2801    N        0.48130    0.91168    0.55181    1.000
    Si2802   Si       0.43331    0.96534    0.52675    1.000
    N2803    N        0.27584    0.85544    0.62903    1.000
    Si2804   Si       0.25020    0.82154    0.61274    1.000
    Si2805   Si       0.31418    0.83873    0.63553    1.000
    N2806    N        0.32743    0.82173    0.59584    1.000
    Si2807   Si       0.29361    0.76796    0.63581    1.000
    N2808    N        0.33602    0.87719    0.63827    1.000
    N2809    N        0.25180    0.78493    0.63602    1.000
    N2810    N        0.30567    0.76097    0.59467    1.000
    N2811    N        0.39525    0.84445    0.60482    1.000
    N2812    N        0.39740    0.77934    0.63637    1.000
    Si2813   Si       0.39953    0.82276    0.64369    1.000
    Si2814   Si       0.46371    0.86603    0.64064    1.000
    Si2815   Si       0.27429    0.94431    0.59448    1.000
    Si2816   Si       0.34159    0.90517    0.60409    1.000
    Si2817   Si       0.35217    0.99807    0.63261    1.000
    N2818    N        0.26643    0.93356    0.63593    1.000
    N2819    N        0.31784    0.93653    0.58843    1.000
    Si2820   Si       0.40969    0.88423    0.59079    1.000
    N2821    N        0.38309    0.91552    0.60524    1.000
    N2822    N        0.44714    0.89428    0.61020    1.000
    N2823    N        0.36855    0.98956    0.59061    1.000
    Si2824   Si       0.46308    0.92958    0.58792    1.000
    Si2825   Si       0.41180    0.98531    0.59298    1.000
    N2826    N        0.42445    0.96631    0.62845    1.000
    N2827    N        0.48757    0.94731    0.61768    1.000
    Si2828   Si       0.39391    0.93767    0.64058    1.000
    N2829    N        0.31082    0.80372    0.65748    1.000
    Si2830   Si       0.30433    0.79405    0.69923    1.000
    N2831    N        0.27057    0.76868    0.69946    1.000
    Si2832   Si       0.36352    0.88258    0.67436    1.000
    Si2833   Si       0.44927    0.80618    0.69095    1.000
    N2834    N        0.37543    0.83997    0.67617    1.000
    N2835    N        0.44205    0.83011    0.65681    1.000
    N2836    N        0.47511    0.77144    0.68079    1.000
    N2837    N        0.47867    0.88730    0.67894    1.000
    N2838    N        0.28098    0.88414    0.69148    1.000
    Si2839   Si       0.26522    0.89201    0.64932    1.000
    N2840    N        0.25556    0.99500    0.68446    1.000
    Si2841   Si       0.26354    0.95375    0.67532    1.000
    Si2842   Si       0.34616    0.95464    0.69439    1.000
    N2843    N        0.35625    0.96025    0.65258    1.000
    N2844    N        0.30198    0.95194    0.69947    1.000
    N2845    N        0.40354    0.90681    0.67101    1.000
    N2846    N        0.45635    0.95257    0.68560    1.000
    Si2847   Si       0.46317    0.97086    0.64717    1.000
    Si2848   Si       0.44201    0.91110    0.69214    1.000
    N2849    N        0.29329    0.82708    0.72556    1.000
    Si2850   Si       0.25810    0.85147    0.71350    1.000
    N2851    N        0.34255    0.78193    0.71243    1.000
    Si2852   Si       0.32099    0.81928    0.75672    1.000
    N2853    N        0.36056    0.83556    0.74305    1.000
    N2854    N        0.41300    0.79286    0.71307    1.000
    N2855    N        0.47066    0.82504    0.72511    1.000
    Si2856   Si       0.47870    0.86877    0.72176    1.000
    Si2857   Si       0.41400    0.76999    0.75275    1.000
    Si2858   Si       0.37469    0.81233    0.70833    1.000
    Si2859   Si       0.48313    0.79066    0.75120    1.000
    N2860    N        0.26414    0.98658    0.75187    1.000
    Si2861   Si       0.30348    0.91143    0.71758    1.000
    Si2862   Si       0.28820    0.99370    0.71422    1.000
    N2863    N        0.28990    0.91223    0.75856    1.000
    N2864    N        0.34584    0.90997    0.70348    1.000
    Si2865   Si       0.36207    0.98642    0.76036    1.000
    N2866    N        0.44191    0.89013    0.73103    1.000
    N2867    N        0.37140    0.98131    0.71611    1.000
    N2868    N        0.46436    0.97356    0.75588    1.000
    Si2869   Si       0.46251    0.98445    0.71460    1.000
    N2870    N        0.33033    0.83813    0.79591    1.000
    N2871    N        0.26124    0.86099    0.80130    1.000
    N2872    N        0.31411    0.77766    0.76997    1.000
    Si2873   Si       0.30134    0.86167    0.81995    1.000
    N2874    N        0.48637    0.80909    0.79076    1.000
    Si2875   Si       0.37630    0.83700    0.78225    1.000
    N2876    N        0.40527    0.80332    0.78374    1.000
    N2877    N        0.39213    0.87528    0.79868    1.000
    N2878    N        0.45279    0.87258    0.80385    1.000
    Si2879   Si       0.26963    0.99951    0.79216    1.000
    Si2880   Si       0.25511    0.89220    0.77236    1.000
    N2881    N        0.35002    0.94448    0.77505    1.000
    Si2882   Si       0.31061    0.93273    0.79128    1.000
    N2883    N        0.29115    0.96685    0.81379    1.000
    N2884    N        0.31605    0.90190    0.82233    1.000
    Si2885   Si       0.37754    0.92129    0.80023    1.000
    N2886    N        0.39866    0.99470    0.78365    1.000
    N2887    N        0.41822    0.93124    0.78754    1.000
    Si2888   Si       0.42900    0.89194    0.77302    1.000
    N2889    N        0.46447    0.97687    0.81902    1.000
    Si2890   Si       0.43596    0.96940    0.78812    1.000
    N2891    N        0.30283    0.84243    0.85760    1.000
    Si2892   Si       0.28550    0.80362    0.85994    1.000
    N2893    N        0.30614    0.76984    0.84171    1.000
    N2894    N        0.24623    0.80146    0.83931    1.000
    N2895    N        0.45857    0.76924    0.83865    1.000
    Si2896   Si       0.42088    0.86511    0.83330    1.000
    N2897    N        0.41396    0.82434    0.84645    1.000
    Si2898   Si       0.42012    0.78937    0.82153    1.000
    N2899    N        0.23998    0.93850    0.85532    1.000
    N2900    N        0.34692    0.00077    0.86910    1.000
    Si2901   Si       0.27752    0.96591    0.85685    1.000
    Si2902   Si       0.33712    0.91871    0.85551    1.000
    N2903    N        0.31109    0.94699    0.87810    1.000
    N2904    N        0.41895    0.88750    0.86945    1.000
    N2905    N        0.48790    0.89060    0.86029    1.000
    N2906    N        0.37028    0.94044    0.83745    1.000
    N2907    N        0.41574    0.00668    0.85385    1.000
    Si2908   Si       0.38237    0.97542    0.85933    1.000
    Si2909   Si       0.45872    0.98793    0.85995    1.000
    Si2910   Si       0.31775    0.86052    0.89459    1.000
    N2911    N        0.28838    0.78512    0.89865    1.000
    Si2912   Si       0.24859    0.86917    0.90171    1.000
    N2913    N        0.32270    0.83694    0.93037    1.000
    N2914    N        0.24800    0.83157    0.92125    1.000
    Si2915   Si       0.30546    0.79543    0.93559    1.000
    N2916    N        0.38670    0.83589    0.90905    1.000
    N2917    N        0.45511    0.81082    0.91196    1.000
    N2918    N        0.40037    0.76986    0.89344    1.000
    Si2919   Si       0.41660    0.81007    0.88909    1.000
    Si2920   Si       0.38334    0.76263    0.93346    1.000
    Si2921   Si       0.38922    0.87914    0.90064    1.000
    N2922    N        0.28646    0.88850    0.90494    1.000
    Si2923   Si       0.34281    0.97853    0.90855    1.000
    Si2924   Si       0.25605    0.99057    0.92299    1.000
    Si2925   Si       0.29866    0.92806    0.91591    1.000
    N2926    N        0.26102    0.94691    0.92806    1.000
    N2927    N        0.26953    0.99950    0.88381    1.000
    N2928    N        0.35052    0.88685    0.88073    1.000
    N2929    N        0.33102    0.94549    0.93728    1.000
    N2930    N        0.45363    0.89358    0.92578    1.000
    N2931    N        0.44399    0.95268    0.88266    1.000
    N2932    N        0.38436    0.96516    0.90278    1.000
    Si2933   Si       0.45503    0.90781    0.88302    1.000
    Si2934   Si       0.42412    0.97354    0.91592    1.000
    N2935    N        0.27338    0.78403    0.96297    1.000
    N2936    N        0.36066    0.82610    0.98630    1.000
    Si2937   Si       0.36501    0.82114    0.94287    1.000
    N2938    N        0.34500    0.77947    0.93642    1.000
    N2939    N        0.40500    0.79263    0.95868    1.000
    N2940    N        0.46193    0.84416    0.97024    1.000
    N2941    N        0.46640    0.77648    0.97118    1.000
    Si2942   Si       0.44458    0.80920    0.95358    1.000
    Si2943   Si       0.48338    0.86906    0.94402    1.000
    N2944    N        0.32777    0.89469    0.98571    1.000
    Si2945   Si       0.35562    0.91854    0.96250    1.000
    N2946    N        0.27621    0.00531    0.95826    1.000
    Si2947   Si       0.45101    0.95690    0.99520    1.000
    N2948    N        0.45891    0.00124    0.98865    1.000
    N2949    N        0.38201    0.93235    0.99498    1.000
    Si2950   Si       0.42478    0.91318    0.95756    1.000
    N2951    N        0.43475    0.95531    0.95463    1.000
    N2952    N        0.38770    0.89916    0.93949    1.000
    N2953    N        0.57398    0.07162    0.02503    1.000
    Si2954   Si       0.60067    0.10554    0.01344    1.000
    Si2955   Si       0.54364    0.04170    0.02470    1.000
    N2956    N        0.50802    0.05401    0.00070    1.000
    Si2957   Si       0.72436    0.07175    0.04825    1.000
    N2958    N        0.70097    0.10538    0.03453    1.000
    N2959    N        0.63364    0.02674    0.03914    1.000
    N2960    N        0.62771    0.09941    0.04611    1.000
    N2961    N        0.72855    0.04848    0.01041    1.000
    Si2962   Si       0.62571    0.01310    0.99956    1.000
    Si2963   Si       0.71811    0.13160    0.00059    1.000
    N2964    N        0.58005    0.14316    0.01727    1.000
    N2965    N        0.51776    0.15800    0.04179    1.000
    Si2966   Si       0.60643    0.23711    0.01363    1.000
    Si2967   Si       0.50161    0.15683    0.00218    1.000
    Si2968   Si       0.55869    0.14828    0.05507    1.000
    Si2969   Si       0.67403    0.22833    0.03967    1.000
    N2970    N        0.63401    0.21255    0.03917    1.000
    N2971    N        0.68670    0.22823    0.99877    1.000
    N2972    N        0.72418    0.17270    0.01305    1.000
    Si2973   Si       0.74053    0.17907    0.05208    1.000
    N2974    N        0.59899    0.05817    0.09331    1.000
    N2975    N        0.54806    0.11204    0.07663    1.000
    Si2976   Si       0.56764    0.07402    0.07134    1.000
    Si2977   Si       0.51057    0.10181    0.09918    1.000
    N2978    N        0.53560    0.04594    0.06937    1.000
    Si2979   Si       0.49650    0.03572    0.08279    1.000
    N2980    N        0.66829    0.08101    0.08661    1.000
    N2981    N        0.72505    0.04535    0.08357    1.000
    Si2982   Si       0.68951    0.05141    0.10747    1.000
    Si2983   Si       0.63290    0.06117    0.06631    1.000
    N2984    N        0.66494    0.01576    0.10111    1.000
    Si2985   Si       0.66558    0.11428    0.05991    1.000
    Si2986   Si       0.55447    0.20178    0.09853    1.000
    N2987    N        0.58096    0.17783    0.07540    1.000
    N2988    N        0.51310    0.20937    0.08669    1.000
    N2989    N        0.58067    0.23642    0.10199    1.000
    N2990    N        0.49176    0.14154    0.10584    1.000
    Si2991   Si       0.49333    0.24661    0.07808    1.000
    Si2992   Si       0.49265    0.17280    0.07344    1.000
    Si2993   Si       0.62352    0.18470    0.07049    1.000
    N2994    N        0.64392    0.20737    0.10468    1.000
    N2995    N        0.73110    0.14911    0.08442    1.000
    Si2996   Si       0.68100    0.18242    0.09763    1.000
    Si2997   Si       0.71602    0.24712    0.08142    1.000
    N2998    N        0.70279    0.20665    0.06574    1.000
    N2999    N        0.65697    0.15468    0.07333    1.000
    N3000    N        0.56653    0.02396    0.14313    1.000
    Si3001   Si       0.52696    0.04146    0.14780    1.000
    Si3002   Si       0.60144    0.04839    0.13702    1.000
    N3003    N        0.52294    0.08508    0.13871    1.000
    N3004    N        0.49832    0.02138    0.12283    1.000
    Si3005   Si       0.53775    0.11100    0.17236    1.000
    N3006    N        0.57491    0.13152    0.16876    1.000
    N3007    N        0.62186    0.08360    0.15694    1.000
    N3008    N        0.69139    0.06412    0.14953    1.000
    N3009    N        0.63131    0.02134    0.15869    1.000
    Si3010   Si       0.72887    0.08166    0.16538    1.000
    Si3011   Si       0.65412    0.06092    0.17220    1.000
    N3012    N        0.54520    0.17776    0.13442    1.000
    Si3013   Si       0.50511    0.16354    0.13987    1.000
    N3014    N        0.60173    0.20039    0.15742    1.000
    Si3015   Si       0.56920    0.17503    0.16895    1.000
    N3016    N        0.71218    0.24319    0.12578    1.000
    Si3017   Si       0.61650    0.22987    0.12890    1.000
    Si3018   Si       0.70543    0.21287    0.15701    1.000
    N3019    N        0.70107    0.17423    0.13562    1.000
    Si3020   Si       0.73824    0.15287    0.12842    1.000
    N3021    N        0.54114    0.08595    0.20690    1.000
    N3022    N        0.51589    0.02826    0.18831    1.000
    Si3023   Si       0.50407    0.06260    0.21016    1.000
    N3024    N        0.59894    0.04097    0.21657    1.000
    N3025    N        0.60759    0.10729    0.22692    1.000
    Si3026   Si       0.57765    0.07486    0.23008    1.000
    Si3027   Si       0.61138    0.11748    0.18236    1.000
    N3028    N        0.66240    0.07218    0.21220    1.000
    N3029    N        0.72608    0.09800    0.20671    1.000
    N3030    N        0.55299    0.17920    0.20828    1.000
    Si3031   Si       0.51356    0.15966    0.22059    1.000
    N3032    N        0.49061    0.19499    0.22407    1.000
    N3033    N        0.50739    0.13977    0.17995    1.000
    N3034    N        0.73173    0.20128    0.19077    1.000
    N3035    N        0.66564    0.21840    0.17551    1.000
    N3036    N        0.63987    0.14998    0.18593    1.000
    N3037    N        0.61975    0.20402    0.22549    1.000
    Si3038   Si       0.63416    0.19222    0.18632    1.000
    Si3039   Si       0.52492    0.09584    0.26875    1.000
    N3040    N        0.56255    0.07252    0.27020    1.000
    N3041    N        0.49197    0.07350    0.25141    1.000
    N3042    N        0.67923    0.11207    0.26312    1.000
    N3043    N        0.69888    0.05278    0.26731    1.000
    Si3044   Si       0.64244    0.09175    0.24588    1.000
    N3045    N        0.63218    0.07193    0.28382    1.000
    Si3046   Si       0.69807    0.08212    0.23469    1.000
    N3047    N        0.52632    0.13768    0.25534    1.000
    N3048    N        0.56973    0.19540    0.27776    1.000
    N3049    N        0.56778    0.24433    0.24180    1.000
    Si3050   Si       0.58048    0.23675    0.28418    1.000
    Si3051   Si       0.57680    0.20171    0.23455    1.000
    N3052    N        0.68776    0.21266    0.25589    1.000
    Si3053   Si       0.72559    0.20073    0.23360    1.000
    N3054    N        0.62223    0.23967    0.28497    1.000
    Si3055   Si       0.64839    0.23117    0.24794    1.000
    N3056    N        0.51592    0.09406    0.31062    1.000
    Si3057   Si       0.55018    0.10455    0.33470    1.000
    N3058    N        0.58299    0.07619    0.34211    1.000
    N3059    N        0.60296    0.01473    0.30643    1.000
    Si3060   Si       0.59344    0.05975    0.30156    1.000
    Si3061   Si       0.48946    0.06473    0.32952    1.000
    Si3062   Si       0.67318    0.06248    0.30079    1.000
    N3063    N        0.68221    0.09555    0.32560    1.000
    N3064    N        0.66847    0.02776    0.32421    1.000
    Si3065   Si       0.69738    0.12606    0.29859    1.000
    N3066    N        0.74039    0.12049    0.30848    1.000
    N3067    N        0.56922    0.13994    0.31925    1.000
    N3068    N        0.51060    0.18225    0.31151    1.000
    N3069    N        0.49450    0.24408    0.34062    1.000
    Si3070   Si       0.49131    0.19908    0.34405    1.000
    Si3071   Si       0.59672    0.15596    0.34988    1.000
    Si3072   Si       0.54296    0.16384    0.29075    1.000
    Si3073   Si       0.69612    0.20504    0.29941    1.000
    Si3074   Si       0.65720    0.17989    0.34273    1.000
    N3075    N        0.67075    0.22341    0.33141    1.000
    N3076    N        0.61439    0.19595    0.34052    1.000
    N3077    N        0.73357    0.22129    0.31251    1.000
    Si3078   Si       0.62946    0.23582    0.32856    1.000
    N3079    N        0.68289    0.16565    0.31116    1.000
    Si3080   Si       0.73843    0.24950    0.34680    1.000
    Si3081   Si       0.60169    0.06697    0.37965    1.000
    N3082    N        0.52623    0.11996    0.36849    1.000
    Si3083   Si       0.50764    0.03770    0.39999    1.000
    N3084    N        0.51435    0.04121    0.35753    1.000
    N3085    N        0.60840    0.02499    0.39353    1.000
    N3086    N        0.73253    0.02300    0.35655    1.000
    N3087    N        0.64326    0.07321    0.37687    1.000
    N3088    N        0.69576    0.11768    0.39251    1.000
    Si3089   Si       0.66465    0.10718    0.36388    1.000
    Si3090   Si       0.65336    0.03301    0.39588    1.000
    Si3091   Si       0.53386    0.15697    0.39063    1.000
    N3092    N        0.57744    0.15611    0.38870    1.000
    N3093    N        0.51060    0.19226    0.38369    1.000
    N3094    N        0.65750    0.24813    0.39876    1.000
    Si3095   Si       0.68874    0.23023    0.37397    1.000
    N3096    N        0.73226    0.22550    0.38437    1.000
    N3097    N        0.67639    0.18598    0.38226    1.000
    N3098    N        0.63610    0.13758    0.35192    1.000
    Si3099   Si       0.56571    0.06280    0.44395    1.000
    N3100    N        0.54526    0.03146    0.41957    1.000
    N3101    N        0.59585    0.04386    0.46746    1.000
    Si3102   Si       0.54114    0.12642    0.46587    1.000
    Si3103   Si       0.59507    0.13063    0.42024    1.000
    N3104    N        0.58433    0.08887    0.41274    1.000
    N3105    N        0.49241    0.07475    0.41768    1.000
    N3106    N        0.66413    0.05230    0.43283    1.000
    Si3107   Si       0.69380    0.07203    0.45797    1.000
    N3108    N        0.72578    0.10086    0.45225    1.000
    Si3109   Si       0.73616    0.10739    0.40933    1.000
    N3110    N        0.58369    0.13356    0.46127    1.000
    N3111    N        0.52226    0.14373    0.43099    1.000
    N3112    N        0.51216    0.24160    0.43782    1.000
    N3113    N        0.57666    0.25626    0.46668    1.000
    Si3114   Si       0.65721    0.23687    0.44035    1.000
    N3115    N        0.62824    0.20719    0.45324    1.000
    Si3116   Si       0.64107    0.16650    0.45983    1.000
    N3117    N        0.68675    0.16697    0.44889    1.000
    Si3118   Si       0.71744    0.19314    0.46004    1.000
    N3119    N        0.70040    0.23284    0.45105    1.000
    N3120    N        0.63646    0.14142    0.42373    1.000
    Si3121   Si       0.67719    0.15325    0.40903    1.000
    Si3122   Si       0.52547    0.06865    0.50980    1.000
    N3123    N        0.53033    0.02345    0.51910    1.000
    N3124    N        0.53865    0.08285    0.47230    1.000
    N3125    N        0.66012    0.08598    0.48399    1.000
    N3126    N        0.71489    0.04796    0.48759    1.000
    Si3127   Si       0.65308    0.11710    0.51574    1.000
    Si3128   Si       0.63922    0.04914    0.46806    1.000
    Si3129   Si       0.60048    0.22375    0.48315    1.000
    N3130    N        0.57030    0.19909    0.50312    1.000
    N3131    N        0.52246    0.14380    0.50001    1.000
    Si3132   Si       0.54393    0.17357    0.52480    1.000
    N3133    N        0.72831    0.18960    0.50152    1.000
    N3134    N        0.63528    0.15438    0.50121    1.000
    N3135    N        0.62742    0.22150    0.51831    1.000
    Si3136   Si       0.58480    0.10879    0.55354    1.000
    N3137    N        0.55629    0.07916    0.54106    1.000
    Si3138   Si       0.54458    0.04405    0.56292    1.000
    N3139    N        0.57243    0.01093    0.56750    1.000
    Si3140   Si       0.49143    0.08848    0.56927    1.000
    N3141    N        0.49073    0.09002    0.52513    1.000
    N3142    N        0.62512    0.09664    0.54160    1.000
    Si3143   Si       0.65098    0.07467    0.56956    1.000
    N3144    N        0.69106    0.07497    0.55164    1.000
    Si3145   Si       0.71801    0.11013    0.55730    1.000
    N3146    N        0.64119    0.03544    0.57955    1.000
    Si3147   Si       0.70737    0.04122    0.52957    1.000
    N3148    N        0.57700    0.15059    0.54252    1.000
    N3149    N        0.51029    0.19087    0.54567    1.000
    Si3150   Si       0.49224    0.22981    0.54308    1.000
    Si3151   Si       0.60898    0.17993    0.53067    1.000
    N3152    N        0.69103    0.21689    0.55197    1.000
    N3153    N        0.73267    0.17425    0.56986    1.000
    N3154    N        0.68876    0.13605    0.53618    1.000
    Si3155   Si       0.64640    0.22670    0.55619    1.000
    Si3156   Si       0.72462    0.24502    0.53672    1.000
    N3157    N        0.62984    0.18610    0.56916    1.000
    Si3158   Si       0.70360    0.17640    0.53533    1.000
    N3159    N        0.57569    0.10782    0.59699    1.000
    Si3160   Si       0.53704    0.12458    0.61852    1.000
    N3161    N        0.50375    0.12294    0.59278    1.000
    Si3162   Si       0.61241    0.10561    0.62236    1.000
    N3163    N        0.60349    0.01284    0.63186    1.000
    N3164    N        0.50721    0.05127    0.58554    1.000
    N3165    N        0.65454    0.10091    0.60358    1.000
    Si3166   Si       0.69178    0.11865    0.61904    1.000
    N3167    N        0.73041    0.10910    0.59858    1.000
    Si3168   Si       0.60598    0.23335    0.63256    1.000
    N3169    N        0.51406    0.22672    0.61820    1.000
    N3170    N        0.58041    0.25187    0.60221    1.000
    N3171    N        0.54371    0.16345    0.63918    1.000
    Si3172   Si       0.53617    0.25813    0.59750    1.000
    Si3173   Si       0.71443    0.21000    0.58920    1.000
    N3174    N        0.68043    0.15989    0.61551    1.000
    N3175    N        0.61208    0.14848    0.63341    1.000
    N3176    N        0.71180    0.21793    0.62916    1.000
    N3177    N        0.64245    0.20766    0.63031    1.000
    Si3178   Si       0.63927    0.17041    0.60856    1.000
    Si3179   Si       0.56638    0.07092    0.66965    1.000
    Si3180   Si       0.50450    0.02960    0.67360    1.000
    N3181    N        0.54562    0.03580    0.66198    1.000
    Si3182   Si       0.50203    0.10558    0.67798    1.000
    N3183    N        0.53766    0.09860    0.65287    1.000
    N3184    N        0.60856    0.07781    0.65412    1.000
    N3185    N        0.61031    0.02513    0.69809    1.000
    N3186    N        0.69077    0.10761    0.66040    1.000
    Si3187   Si       0.69566    0.06575    0.67125    1.000
    Si3188   Si       0.62828    0.03889    0.66016    1.000
    N3189    N        0.66842    0.04080    0.65195    1.000
    N3190    N        0.73839    0.05810    0.66728    1.000
    Si3191   Si       0.58334    0.16509    0.66172    1.000
    N3192    N        0.57795    0.20986    0.66180    1.000
    Si3193   Si       0.58230    0.24328    0.68945    1.000
    N3194    N        0.51003    0.20156    0.68698    1.000
    Si3195   Si       0.53395    0.20677    0.65098    1.000
    N3196    N        0.57903    0.15491    0.70394    1.000
    Si3197   Si       0.68138    0.19399    0.64578    1.000
    Si3198   Si       0.70420    0.13614    0.68981    1.000
    N3199    N        0.69435    0.17773    0.68325    1.000
    N3200    N        0.71272    0.24724    0.69035    1.000
    Si3201   Si       0.59568    0.04584    0.73636    1.000
    Si3202   Si       0.55706    0.11919    0.72018    1.000
    N3203    N        0.56464    0.01983    0.75287    1.000
    N3204    N        0.56904    0.07781    0.71268    1.000
    N3205    N        0.51583    0.12942    0.70977    1.000
    Si3206   Si       0.69852    0.08941    0.74286    1.000
    Si3207   Si       0.66927    0.01951    0.72684    1.000
    N3208    N        0.68105    0.06091    0.71325    1.000
    N3209    N        0.68715    0.12817    0.72993    1.000
    N3210    N        0.73624    0.07131    0.75151    1.000
    N3211    N        0.63714    0.01860    0.75645    1.000
    N3212    N        0.51818    0.25188    0.74440    1.000
    Si3213   Si       0.58849    0.17926    0.73795    1.000
    N3214    N        0.53755    0.18564    0.74981    1.000
    N3215    N        0.58839    0.22371    0.72821    1.000
    Si3216   Si       0.50732    0.17320    0.72033    1.000
    Si3217   Si       0.50507    0.24232    0.70240    1.000
    Si3218   Si       0.71320    0.20889    0.70836    1.000
    N3219    N        0.68699    0.20484    0.74303    1.000
    N3220    N        0.63173    0.16792    0.74822    1.000
    Si3221   Si       0.67271    0.16472    0.74891    1.000
    Si3222   Si       0.58719    0.10275    0.79133    1.000
    N3223    N        0.50362    0.07888    0.81372    1.000
    N3224    N        0.60697    0.07130    0.77119    1.000
    N3225    N        0.51187    0.01221    0.79458    1.000
    Si3226   Si       0.49061    0.11891    0.82033    1.000
    N3227    N        0.56662    0.12654    0.76175    1.000
    Si3228   Si       0.71408    0.04209    0.77673    1.000
    N3229    N        0.68030    0.06883    0.78007    1.000
    Si3230   Si       0.64216    0.05058    0.78667    1.000
    N3231    N        0.61581    0.12949    0.80896    1.000
    N3232    N        0.73819    0.02644    0.80727    1.000
    N3233    N        0.53096    0.22033    0.81209    1.000
    Si3234   Si       0.54479    0.22449    0.76828    1.000
    Si3235   Si       0.54971    0.16188    0.78453    1.000
    N3236    N        0.58500    0.18465    0.78807    1.000
    N3237    N        0.51692    0.15268    0.80965    1.000
    Si3238   Si       0.59501    0.21937    0.81263    1.000
    N3239    N        0.57731    0.25106    0.78462    1.000
    N3240    N        0.63579    0.20698    0.81355    1.000
    Si3241   Si       0.62780    0.16685    0.79204    1.000
    N3242    N        0.67427    0.15806    0.79239    1.000
    Si3243   Si       0.67652    0.24432    0.76100    1.000
    N3244    N        0.68134    0.25527    0.80411    1.000
    Si3245   Si       0.53989    0.07004    0.83573    1.000
    Si3246   Si       0.60138    0.12061    0.84929    1.000
    Si3247   Si       0.60804    0.04372    0.85146    1.000
    N3248    N        0.56631    0.10416    0.83062    1.000
    N3249    N        0.56940    0.04113    0.82662    1.000
    N3250    N        0.52561    0.06721    0.87741    1.000
    N3251    N        0.62390    0.08460    0.86105    1.000
    Si3252   Si       0.72804    0.11922    0.87595    1.000
    N3253    N        0.63764    0.02826    0.82272    1.000
    Si3254   Si       0.65924    0.10288    0.87969    1.000
    Si3255   Si       0.50429    0.19038    0.82986    1.000
    N3256    N        0.58646    0.23692    0.85178    1.000
    N3257    N        0.51438    0.25030    0.86914    1.000
    N3258    N        0.50822    0.18610    0.87419    1.000
    Si3259   Si       0.54672    0.25087    0.84143    1.000
    N3260    N        0.59800    0.15113    0.87949    1.000
    N3261    N        0.72758    0.13072    0.83452    1.000
    Si3262   Si       0.69130    0.15478    0.83218    1.000
    N3263    N        0.66324    0.14237    0.86170    1.000
    N3264    N        0.70519    0.19614    0.83729    1.000
    N3265    N        0.65374    0.23736    0.87306    1.000
    Si3266   Si       0.66947    0.22435    0.83421    1.000
    Si3267   Si       0.53568    0.08978    0.91408    1.000
    Si3268   Si       0.58347    0.03783    0.92760    1.000
    N3269    N        0.60584    0.02431    0.89174    1.000
    N3270    N        0.57482    0.07994    0.92786    1.000
    N3271    N        0.50134    0.06617    0.93322    1.000
    Si3272   Si       0.49066    0.04786    0.89477    1.000
    N3273    N        0.53424    0.13176    0.90696    1.000
    Si3274   Si       0.60360    0.10974    0.93916    1.000
    N3275    N        0.64187    0.11680    0.91771    1.000
    Si3276   Si       0.70763    0.06069    0.91824    1.000
    N3277    N        0.72298    0.02019    0.91398    1.000
    N3278    N        0.69834    0.08679    0.88546    1.000
    Si3279   Si       0.52311    0.21886    0.89739    1.000
    Si3280   Si       0.49708    0.14964    0.89352    1.000
    N3281    N        0.55950    0.20595    0.91560    1.000
    Si3282   Si       0.56719    0.16148    0.91071    1.000
    N3283    N        0.49907    0.22764    0.93347    1.000
    N3284    N        0.65951    0.18686    0.91860    1.000
    Si3285   Si       0.63810    0.15775    0.89516    1.000
    N3286    N        0.71766    0.15364    0.90254    1.000
    N3287    N        0.61670    0.24454    0.93057    1.000
    Si3288   Si       0.65393    0.22875    0.91522    1.000
    Si3289   Si       0.69632    0.16693    0.93799    1.000
    N3290    N        0.61114    0.02332    0.95867    1.000
    N3291    N        0.62376    0.10227    0.97716    1.000
    Si3292   Si       0.66269    0.10161    0.95513    1.000
    Si3293   Si       0.65444    0.02368    0.94567    1.000
    N3294    N        0.67210    0.06110    0.94290    1.000
    N3295    N        0.69142    0.13271    0.96680    1.000
    N3296    N        0.53008    0.17055    0.97416    1.000
    N3297    N        0.58678    0.21068    0.98590    1.000
    Si3298   Si       0.49595    0.18964    0.95320    1.000
    Si3299   Si       0.57932    0.23019    0.94781    1.000
    N3300    N        0.58829    0.15137    0.94726    1.000
    Si3301   Si       0.57124    0.16838    0.98348    1.000
    N3302    N        0.68198    0.25822    0.93543    1.000
    Si3303   Si       0.72628    0.20825    0.98880    1.000
    N3304    N        0.72749    0.19594    0.94743    1.000
    Si3305   Si       0.55787    0.35009    0.01557    1.000
    N3306    N        0.59942    0.34038    0.00646    1.000
    N3307    N        0.58668    0.26850    0.03536    1.000
    N3308    N        0.54552    0.34118    0.05646    1.000
    Si3309   Si       0.61401    0.29905    0.01880    1.000
    Si3310   Si       0.68551    0.30406    0.04038    1.000
    Si3311   Si       0.72633    0.36711    0.03892    1.000
    N3312    N        0.64630    0.32115    0.03997    1.000
    Si3313   Si       0.62813    0.36022    0.03491    1.000
    N3314    N        0.71044    0.36232    0.99857    1.000
    N3315    N        0.69930    0.29602    0.99951    1.000
    N3316    N        0.59044    0.49550    0.03709    1.000
    N3317    N        0.54788    0.39411    0.01013    1.000
    N3318    N        0.53227    0.45082    0.04087    1.000
    N3319    N        0.60028    0.43009    0.03507    1.000
    Si3320   Si       0.51468    0.41262    0.03415    1.000
    Si3321   Si       0.50270    0.48040    0.05294    1.000
    Si3322   Si       0.60801    0.48285    0.99951    1.000
    Si3323   Si       0.58050    0.41857    0.99619    1.000
    N3324    N        0.71819    0.40831    0.04881    1.000
    N3325    N        0.64435    0.45931    0.99778    1.000
    N3326    N        0.65041    0.39138    0.01748    1.000
    N3327    N        0.72082    0.48355    0.03116    1.000
    Si3328   Si       0.64259    0.43255    0.03216    1.000
    Si3329   Si       0.72670    0.43867    0.01972    1.000
    Si3330   Si       0.57521    0.34462    0.08757    1.000
    Si3331   Si       0.57160    0.27082    0.07607    1.000
    N3332    N        0.52838    0.27474    0.07252    1.000
    N3333    N        0.58745    0.30463    0.09836    1.000
    Si3334   Si       0.51048    0.37026    0.10210    1.000
    N3335    N        0.60856    0.36827    0.07373    1.000
    Si3336   Si       0.51189    0.31379    0.06021    1.000
    N3337    N        0.49233    0.32985    0.09457    1.000
    N3338    N        0.55162    0.36600    0.11852    1.000
    Si3339   Si       0.70116    0.34595    0.10054    1.000
    Si3340   Si       0.63208    0.37774    0.10704    1.000
    N3341    N        0.67404    0.37913    0.09461    1.000
    N3342    N        0.70963    0.33175    0.06029    1.000
    N3343    N        0.68245    0.26615    0.05947    1.000
    N3344    N        0.49847    0.39742    0.07335    1.000
    N3345    N        0.52222    0.50448    0.08522    1.000
    N3346    N        0.56993    0.45433    0.09782    1.000
    Si3347   Si       0.57230    0.45881    0.05380    1.000
    Si3348   Si       0.69225    0.41662    0.08256    1.000
    N3349    N        0.66552    0.44710    0.06479    1.000
    Si3350   Si       0.66667    0.48585    0.08353    1.000
    N3351    N        0.62808    0.48347    0.10544    1.000
    N3352    N        0.71877    0.43270    0.11631    1.000
    Si3353   Si       0.60572    0.30294    0.13583    1.000
    N3354    N        0.62240    0.34671    0.13569    1.000
    Si3355   Si       0.71475    0.28228    0.14376    1.000
    N3356    N        0.69435    0.31995    0.13305    1.000
    N3357    N        0.62926    0.26813    0.14597    1.000
    Si3358   Si       0.69049    0.34251    0.17076    1.000
    N3359    N        0.68744    0.38482    0.15938    1.000
    Si3360   Si       0.54787    0.48666    0.11653    1.000
    N3361    N        0.49868    0.38563    0.14258    1.000
    Si3362   Si       0.54024    0.38589    0.15544    1.000
    N3363    N        0.59264    0.46638    0.16102    1.000
    N3364    N        0.52777    0.48057    0.15454    1.000
    Si3365   Si       0.60637    0.44858    0.12238    1.000
    Si3366   Si       0.65255    0.40965    0.16787    1.000
    N3367    N        0.63010    0.41512    0.13129    1.000
    Si3368   Si       0.72475    0.39757    0.14004    1.000
    Si3369   Si       0.73147    0.47456    0.12046    1.000
    N3370    N        0.69356    0.49577    0.11613    1.000
    Si3371   Si       0.55081    0.32186    0.19986    1.000
    N3372    N        0.52568    0.28779    0.20129    1.000
    N3373    N        0.53172    0.35855    0.19097    1.000
    N3374    N        0.58575    0.31603    0.17508    1.000
    N3375    N        0.70107    0.27396    0.18388    1.000
    N3376    N        0.65648    0.32510    0.19139    1.000
    Si3377   Si       0.72484    0.29712    0.21421    1.000
    N3378    N        0.72567    0.33874    0.19731    1.000
    N3379    N        0.64711    0.26721    0.22363    1.000
    Si3380   Si       0.65889    0.26288    0.17992    1.000
    Si3381   Si       0.61987    0.34330    0.17885    1.000
    Si3382   Si       0.55418    0.39152    0.21706    1.000
    N3383    N        0.55368    0.41639    0.17947    1.000
    Si3384   Si       0.55480    0.45921    0.18096    1.000
    N3385    N        0.55311    0.47191    0.22271    1.000
    N3386    N        0.62770    0.38398    0.19287    1.000
    N3387    N        0.62329    0.47999    0.22385    1.000
    Si3388   Si       0.65966    0.45517    0.22818    1.000
    Si3389   Si       0.62864    0.47873    0.18048    1.000
    N3390    N        0.66000    0.44957    0.18323    1.000
    Si3391   Si       0.57688    0.34498    0.27008    1.000
    N3392    N        0.56478    0.31379    0.24218    1.000
    N3393    N        0.50823    0.26898    0.26799    1.000
    Si3394   Si       0.54220    0.27605    0.23970    1.000
    N3395    N        0.58663    0.37827    0.24059    1.000
    N3396    N        0.69839    0.30352    0.24872    1.000
    N3397    N        0.64148    0.34489    0.25349    1.000
    N3398    N        0.70578    0.37262    0.27293    1.000
    Si3399   Si       0.70779    0.32945    0.28220    1.000
    Si3400   Si       0.65982    0.30733    0.23156    1.000
    Si3401   Si       0.51173    0.38334    0.27813    1.000
    Si3402   Si       0.52642    0.45009    0.24747    1.000
    N3403    N        0.52644    0.40827    0.24429    1.000
    Si3404   Si       0.58690    0.49885    0.23640    1.000
    Si3405   Si       0.63044    0.38174    0.23575    1.000
    Si3406   Si       0.67723    0.40542    0.27974    1.000
    N3407    N        0.65389    0.41702    0.24478    1.000
    N3408    N        0.69112    0.48288    0.24226    1.000
    Si3409   Si       0.70118    0.47749    0.28517    1.000
    Si3410   Si       0.58594    0.29775    0.32868    1.000
    N3411    N        0.50438    0.30608    0.32061    1.000
    N3412    N        0.60287    0.32830    0.30429    1.000
    Si3413   Si       0.51713    0.26719    0.31172    1.000
    Si3414   Si       0.56068    0.36376    0.34020    1.000
    N3415    N        0.54713    0.36264    0.29777    1.000
    N3416    N        0.56230    0.26588    0.30982    1.000
    N3417    N        0.67747    0.32630    0.31324    1.000
    Si3418   Si       0.64170    0.34535    0.29678    1.000
    N3419    N        0.62015    0.27633    0.34474    1.000
    Si3420   Si       0.50445    0.44571    0.31868    1.000
    N3421    N        0.60094    0.45637    0.31455    1.000
    Si3422   Si       0.56842    0.48440    0.30820    1.000
    N3423    N        0.55210    0.50560    0.34317    1.000
    N3424    N        0.53633    0.46031    0.29358    1.000
    N3425    N        0.73498    0.50386    0.29152    1.000
    Si3426   Si       0.73278    0.42584    0.32902    1.000
    N3427    N        0.70624    0.43385    0.29549    1.000
    N3428    N        0.64466    0.38844    0.30433    1.000
    Si3429   Si       0.63462    0.47795    0.33174    1.000
    N3430    N        0.66713    0.49025    0.30721    1.000
    Si3431   Si       0.61733    0.41770    0.32917    1.000
    N3432    N        0.56207    0.32037    0.35913    1.000
    N3433    N        0.52205    0.36829    0.36022    1.000
    Si3434   Si       0.51719    0.32541    0.35768    1.000
    Si3435   Si       0.57209    0.31908    0.40129    1.000
    N3436    N        0.49110    0.30472    0.38654    1.000
    N3437    N        0.66230    0.32126    0.38335    1.000
    Si3438   Si       0.63754    0.28530    0.38396    1.000
    Si3439   Si       0.73321    0.37450    0.37670    1.000
    N3440    N        0.73049    0.33604    0.35597    1.000
    N3441    N        0.70263    0.27333    0.35766    1.000
    Si3442   Si       0.69184    0.31466    0.35240    1.000
    N3443    N        0.51895    0.44489    0.35925    1.000
    Si3444   Si       0.50786    0.40641    0.37840    1.000
    Si3445   Si       0.52259    0.48762    0.37056    1.000
    Si3446   Si       0.60571    0.39369    0.39402    1.000
    N3447    N        0.59041    0.39263    0.35143    1.000
    Si3448   Si       0.67389    0.42067    0.37850    1.000
    N3449    N        0.64828    0.38780    0.39658    1.000
    N3450    N        0.64665    0.43886    0.35167    1.000
    N3451    N        0.70966    0.40445    0.35909    1.000
    N3452    N        0.53888    0.30603    0.42904    1.000
    Si3453   Si       0.60380    0.28597    0.45232    1.000
    Si3454   Si       0.53690    0.27051    0.45683    1.000
    Si3455   Si       0.58291    0.35945    0.45568    1.000
    Si3456   Si       0.49546    0.31859    0.42829    1.000
    N3457    N        0.58275    0.36082    0.41284    1.000
    N3458    N        0.60708    0.29543    0.41063    1.000
    N3459    N        0.66039    0.34617    0.45487    1.000
    N3460    N        0.71096    0.36572    0.41358    1.000
    N3461    N        0.64288    0.27226    0.46170    1.000
    Si3462   Si       0.66891    0.35322    0.41309    1.000
    Si3463   Si       0.73187    0.26196    0.46485    1.000
    N3464    N        0.54129    0.48369    0.41184    1.000
    N3465    N        0.52525    0.41416    0.41675    1.000
    Si3466   Si       0.55670    0.44371    0.42227    1.000
    Si3467   Si       0.51184    0.39134    0.45406    1.000
    N3468    N        0.56035    0.44313    0.46544    1.000
    Si3469   Si       0.54852    0.50901    0.44738    1.000
    N3470    N        0.59911    0.43547    0.40808    1.000
    N3471    N        0.62563    0.50416    0.41103    1.000
    Si3472   Si       0.63058    0.46247    0.42311    1.000
    N3473    N        0.73079    0.50077    0.40963    1.000
    N3474    N        0.67316    0.45156    0.41112    1.000
    Si3475   Si       0.72574    0.39266    0.44526    1.000
    N3476    N        0.62569    0.45569    0.46525    1.000
    Si3477   Si       0.71132    0.46522    0.42828    1.000
    N3478    N        0.51896    0.28630    0.49489    1.000
    Si3479   Si       0.60189    0.31965    0.51707    1.000
    N3480    N        0.54405    0.37311    0.47550    1.000
    N3481    N        0.59341    0.32200    0.47390    1.000
    Si3482   Si       0.54570    0.36806    0.51897    1.000
    N3483    N        0.70895    0.29739    0.47501    1.000
    N3484    N        0.64569    0.31184    0.51633    1.000
    Si3485   Si       0.66400    0.30577    0.47565    1.000
    Si3486   Si       0.72496    0.31448    0.51276    1.000
    N3487    N        0.65132    0.38064    0.52082    1.000
    Si3488   Si       0.65415    0.38153    0.47763    1.000
    N3489    N        0.71301    0.35394    0.52380    1.000
    N3490    N        0.59811    0.42629    0.52627    1.000
    Si3491   Si       0.59684    0.42941    0.48208    1.000
    Si3492   Si       0.50831    0.49065    0.51783    1.000
    N3493    N        0.51555    0.49914    0.47367    1.000
    Si3494   Si       0.58027    0.50482    0.51271    1.000
    N3495    N        0.61224    0.38965    0.46748    1.000
    Si3496   Si       0.70541    0.43613    0.49318    1.000
    N3497    N        0.67352    0.45409    0.51778    1.000
    Si3498   Si       0.64570    0.47996    0.49652    1.000
    N3499    N        0.71873    0.47103    0.47036    1.000
    N3500    N        0.69195    0.40225    0.47179    1.000
    N3501    N        0.73211    0.42447    0.52515    1.000
    N3502    N        0.57853    0.29274    0.54196    1.000
    N3503    N        0.52161    0.33748    0.53690    1.000
    Si3504   Si       0.60165    0.28414    0.57873    1.000
    Si3505   Si       0.53440    0.29529    0.53459    1.000
    N3506    N        0.58578    0.35974    0.52889    1.000
    N3507    N        0.51978    0.25989    0.55618    1.000
    Si3508   Si       0.68057    0.36614    0.54862    1.000
    Si3509   Si       0.66798    0.29670    0.55175    1.000
    N3510    N        0.70618    0.28338    0.53633    1.000
    N3511    N        0.64101    0.26682    0.56800    1.000
    N3512    N        0.67755    0.33239    0.57433    1.000
    Si3513   Si       0.56007    0.43683    0.54668    1.000
    N3514    N        0.53091    0.40830    0.53134    1.000
    N3515    N        0.55046    0.47607    0.52781    1.000
    Si3516   Si       0.61471    0.38869    0.54120    1.000
    Si3517   Si       0.68649    0.44217    0.55824    1.000
    Si3518   Si       0.63435    0.49019    0.56735    1.000
    N3519    N        0.69198    0.40133    0.57307    1.000
    N3520    N        0.71707    0.47040    0.56592    1.000
    N3521    N        0.62001    0.49311    0.52740    1.000
    Si3522   Si       0.70651    0.50685    0.58471    1.000
    N3523    N        0.52940    0.29940    0.60985    1.000
    Si3524   Si       0.55989    0.32931    0.62022    1.000
    N3525    N        0.59784    0.32159    0.60165    1.000
    N3526    N        0.53838    0.36728    0.61121    1.000
    N3527    N        0.59611    0.38065    0.63495    1.000
    Si3528   Si       0.48840    0.31027    0.61318    1.000
    N3529    N        0.70844    0.29182    0.62781    1.000
    Si3530   Si       0.62376    0.35518    0.61286    1.000
    Si3531   Si       0.69445    0.32920    0.61552    1.000
    N3532    N        0.72124    0.36316    0.62359    1.000
    N3533    N        0.65777    0.34222    0.63599    1.000
    Si3534   Si       0.50319    0.38059    0.64340    1.000
    Si3535   Si       0.55990    0.40330    0.62053    1.000
    Si3536   Si       0.58114    0.46851    0.61441    1.000
    N3537    N        0.54600    0.49043    0.62892    1.000
    N3538    N        0.60490    0.50074    0.59825    1.000
    N3539    N        0.56596    0.43485    0.58885    1.000
    N3540    N        0.60954    0.44676    0.63797    1.000
    Si3541   Si       0.63254    0.42195    0.60574    1.000
    N3542    N        0.66471    0.41487    0.63610    1.000
    N3543    N        0.71432    0.49892    0.62689    1.000
    N3544    N        0.73038    0.42888    0.62059    1.000
    Si3545   Si       0.69915    0.40008    0.61638    1.000
    N3546    N        0.62561    0.38640    0.58184    1.000
    N3547    N        0.64866    0.45056    0.57950    1.000
    N3548    N        0.55810    0.32850    0.66381    1.000
    Si3549   Si       0.58485    0.36129    0.67205    1.000
    Si3550   Si       0.54832    0.29798    0.69120    1.000
    N3551    N        0.61359    0.26242    0.66377    1.000
    N3552    N        0.48777    0.33816    0.64552    1.000
    N3553    N        0.50079    0.38069    0.69158    1.000
    N3554    N        0.53875    0.25923    0.67751    1.000
    N3555    N        0.61829    0.33915    0.68651    1.000
    Si3556   Si       0.62288    0.29404    0.69139    1.000
    Si3557   Si       0.66101    0.33851    0.67818    1.000
    N3558    N        0.66507    0.29880    0.69657    1.000
    Si3559   Si       0.72213    0.25550    0.64635    1.000
    N3560    N        0.54214    0.45908    0.69186    1.000
    Si3561   Si       0.52222    0.46050    0.65106    1.000
    Si3562   Si       0.53572    0.41604    0.69517    1.000
    N3563    N        0.53036    0.41816    0.64806    1.000
    N3564    N        0.59796    0.50627    0.69877    1.000
    N3565    N        0.73061    0.45219    0.68539    1.000
    N3566    N        0.66319    0.47251    0.68273    1.000
    Si3567   Si       0.64042    0.43634    0.66914    1.000
    Si3568   Si       0.70303    0.48067    0.70062    1.000
    Si3569   Si       0.73661    0.46663    0.64342    1.000
    N3570    N        0.58501    0.28523    0.71334    1.000
    Si3571   Si       0.50763    0.29315    0.75038    1.000
    N3572    N        0.51289    0.31157    0.71078    1.000
    Si3573   Si       0.59863    0.26276    0.74973    1.000
    N3574    N        0.62395    0.37126    0.74641    1.000
    Si3575   Si       0.72290    0.35847    0.71380    1.000
    Si3576   Si       0.70460    0.28394    0.71019    1.000
    N3577    N        0.71171    0.26867    0.75221    1.000
    N3578    N        0.68243    0.36639    0.70313    1.000
    N3579    N        0.72535    0.35620    0.75954    1.000
    N3580    N        0.64033    0.26444    0.75620    1.000
    N3581    N        0.73330    0.31688    0.70508    1.000
    Si3582   Si       0.56031    0.49161    0.71277    1.000
    N3583    N        0.52055    0.42330    0.73567    1.000
    Si3584   Si       0.59888    0.40178    0.72971    1.000
    N3585    N        0.55865    0.48403    0.75544    1.000
    N3586    N        0.57056    0.39128    0.69969    1.000
    N3587    N        0.63432    0.41664    0.70522    1.000
    Si3588   Si       0.65982    0.39118    0.73032    1.000
    N3589    N        0.70390    0.47388    0.74465    1.000
    N3590    N        0.60155    0.30999    0.78111    1.000
    N3591    N        0.53101    0.31239    0.77998    1.000
    Si3592   Si       0.56543    0.29531    0.79600    1.000
    Si3593   Si       0.51073    0.34652    0.79566    1.000
    N3594    N        0.49148    0.36690    0.76354    1.000
    Si3595   Si       0.62367    0.34729    0.78144    1.000
    N3596    N        0.66461    0.32381    0.78295    1.000
    Si3597   Si       0.70271    0.34163    0.79248    1.000
    Si3598   Si       0.64397    0.28795    0.79513    1.000
    Si3599   Si       0.72303    0.27064    0.79448    1.000
    N3600    N        0.72522    0.31098    0.81188    1.000
    N3601    N        0.61907    0.37608    0.81225    1.000
    N3602    N        0.52456    0.44741    0.80375    1.000
    Si3603   Si       0.54460    0.44208    0.76608    1.000
    N3604    N        0.58192    0.42134    0.76370    1.000
    N3605    N        0.67534    0.41084    0.76575    1.000
    Si3606   Si       0.65688    0.39917    0.80569    1.000
    N3607    N        0.72126    0.45022    0.80657    1.000
    N3608    N        0.67496    0.50150    0.79966    1.000
    Si3609   Si       0.71313    0.43751    0.76476    1.000
    N3610    N        0.59065    0.34928    0.86493    1.000
    N3611    N        0.55820    0.29229    0.83629    1.000
    Si3612   Si       0.57948    0.37908    0.83330    1.000
    N3613    N        0.53803    0.37496    0.81852    1.000
    N3614    N        0.63356    0.29520    0.83735    1.000
    Si3615   Si       0.69647    0.36863    0.86133    1.000
    Si3616   Si       0.62867    0.32613    0.86924    1.000
    N3617    N        0.68703    0.37151    0.81962    1.000
    Si3618   Si       0.61909    0.26304    0.86426    1.000
    N3619    N        0.73876    0.35536    0.86132    1.000
    N3620    N        0.54116    0.48493    0.86240    1.000
    N3621    N        0.58067    0.42008    0.85074    1.000
    Si3622   Si       0.51163    0.41164    0.82805    1.000
    N3623    N        0.51385    0.41976    0.87098    1.000
    Si3624   Si       0.51799    0.48619    0.82498    1.000
    Si3625   Si       0.55169    0.44406    0.87470    1.000
    N3626    N        0.62417    0.47825    0.87135    1.000
    N3627    N        0.69546    0.48005    0.86617    1.000
    N3628    N        0.65508    0.43469    0.82965    1.000
    Si3629   Si       0.62190    0.43636    0.85864    1.000
    Si3630   Si       0.68468    0.46685    0.82496    1.000
    N3631    N        0.53264    0.31497    0.90535    1.000
    Si3632   Si       0.56500    0.34056    0.89803    1.000
    N3633    N        0.61015    0.29414    0.89476    1.000
    N3634    N        0.55001    0.38110    0.90996    1.000
    Si3635   Si       0.71497    0.28188    0.92128    1.000
    Si3636   Si       0.67119    0.34213    0.92776    1.000
    N3637    N        0.66505    0.34578    0.88448    1.000
    N3638    N        0.73050    0.28480    0.87957    1.000
    N3639    N        0.56286    0.44454    0.91614    1.000
    Si3640   Si       0.58536    0.40668    0.92033    1.000
    Si3641   Si       0.50677    0.39416    0.90633    1.000
    Si3642   Si       0.66511    0.41222    0.91494    1.000
    Si3643   Si       0.73595    0.48719    0.87883    1.000
    Si3644   Si       0.66147    0.48461    0.89433    1.000
    N3645    N        0.69796    0.40417    0.88701    1.000
    N3646    N        0.66794    0.45453    0.92876    1.000
    N3647    N        0.62472    0.41344    0.89870    1.000
    Si3648   Si       0.54158    0.30658    0.94910    1.000
    N3649    N        0.56679    0.27154    0.95425    1.000
    N3650    N        0.53451    0.32585    0.98974    1.000
    Si3651   Si       0.60944    0.35166    0.96396    1.000
    N3652    N        0.58005    0.32935    0.93948    1.000
    N3653    N        0.49384    0.29772    0.95120    1.000
    Si3654   Si       0.60623    0.28766    0.93725    1.000
    Si3655   Si       0.72224    0.32633    0.97851    1.000
    N3656    N        0.63798    0.31960    0.94940    1.000
    Si3657   Si       0.67379    0.26547    0.97792    1.000
    N3658    N        0.66839    0.38129    0.94642    1.000
    N3659    N        0.70829    0.32217    0.93746    1.000
    N3660    N        0.63325    0.26797    0.99431    1.000
    N3661    N        0.51273    0.47354    0.96512    1.000
    N3662    N        0.59652    0.39419    0.96170    1.000
    N3663    N        0.57796    0.45894    0.97956    1.000
    Si3664   Si       0.55196    0.47296    0.94905    1.000
    N3665    N        0.48554    0.41207    0.94084    1.000
    N3666    N        0.70174    0.42883    0.98561    1.000
    Si3667   Si       0.67882    0.46301    0.97029    1.000
    Si3668   Si       0.68127    0.39162    0.98753    1.000
    N3669    N        0.69210    0.50519    0.97270    1.000
    Si3670   Si       0.57811    0.53680    0.02956    1.000
    Si3671   Si       0.53738    0.59956    0.04159    1.000
    N3672    N        0.56864    0.62752    0.02459    1.000
    N3673    N        0.51901    0.59995    0.00063    1.000
    N3674    N        0.49362    0.50986    0.02256    1.000
    N3675    N        0.61686    0.56214    0.03364    1.000
    N3676    N        0.70791    0.55874    0.02287    1.000
    Si3677   Si       0.69655    0.51675    0.01873    1.000
    N3678    N        0.72670    0.62812    0.03659    1.000
    Si3679   Si       0.71431    0.59031    0.05453    1.000
    N3680    N        0.63190    0.62254    0.00085    1.000
    N3681    N        0.66482    0.51695    0.05275    1.000
    Si3682   Si       0.62563    0.58114    0.99620    1.000
    N3683    N        0.49644    0.73932    0.00819    1.000
    Si3684   Si       0.60730    0.65045    0.02293    1.000
    N3685    N        0.60623    0.69197    0.00504    1.000
    Si3686   Si       0.50788    0.70005    0.02306    1.000
    Si3687   Si       0.58095    0.71726    0.02768    1.000
    N3688    N        0.54366    0.70444    0.04556    1.000
    Si3689   Si       0.73209    0.64200    0.99535    1.000
    N3690    N        0.70758    0.74852    0.01507    1.000
    Si3691   Si       0.66712    0.74726    0.03017    1.000
    Si3692   Si       0.73563    0.71558    0.02350    1.000
    N3693    N        0.72675    0.68572    0.99474    1.000
    Si3694   Si       0.53913    0.54392    0.09231    1.000
    N3695    N        0.51802    0.62350    0.07018    1.000
    N3696    N        0.50656    0.56380    0.10975    1.000
    N3697    N        0.55325    0.56018    0.05583    1.000
    N3698    N        0.63482    0.55359    0.10558    1.000
    Si3699   Si       0.64771    0.55528    0.06421    1.000
    N3700    N        0.67240    0.59314    0.06803    1.000
    Si3701   Si       0.65790    0.63105    0.08209    1.000
    N3702    N        0.49515    0.66825    0.10761    1.000
    Si3703   Si       0.56328    0.70307    0.08523    1.000
    N3704    N        0.59862    0.72288    0.06904    1.000
    N3705    N        0.57066    0.66454    0.10256    1.000
    Si3706   Si       0.53345    0.64363    0.10957    1.000
    N3707    N        0.62852    0.65529    0.06108    1.000
    Si3708   Si       0.69770    0.70068    0.08725    1.000
    Si3709   Si       0.63102    0.69590    0.07292    1.000
    N3710    N        0.66731    0.71290    0.05733    1.000
    Si3711   Si       0.73427    0.65565    0.07105    1.000
    N3712    N        0.69439    0.65685    0.08743    1.000
    N3713    N        0.73562    0.69925    0.06417    1.000
    Si3714   Si       0.51200    0.58340    0.14638    1.000
    N3715    N        0.53846    0.61729    0.14299    1.000
    Si3716   Si       0.50274    0.51495    0.16866    1.000
    N3717    N        0.52943    0.54973    0.17031    1.000
    N3718    N        0.57220    0.52247    0.11539    1.000
    Si3719   Si       0.61435    0.51909    0.12399    1.000
    Si3720   Si       0.73412    0.57475    0.13061    1.000
    N3721    N        0.69250    0.56880    0.13797    1.000
    Si3722   Si       0.64935    0.58416    0.13374    1.000
    Si3723   Si       0.68617    0.52490    0.14789    1.000
    N3724    N        0.64094    0.51692    0.16356    1.000
    N3725    N        0.63652    0.62307    0.11940    1.000
    N3726    N        0.63329    0.58202    0.17207    1.000
    Si3727   Si       0.51132    0.75327    0.12418    1.000
    Si3728   Si       0.54894    0.71570    0.15782    1.000
    Si3729   Si       0.60895    0.65657    0.12750    1.000
    N3730    N        0.51746    0.74540    0.16801    1.000
    N3731    N        0.59787    0.65492    0.17198    1.000
    N3732    N        0.54297    0.72541    0.11412    1.000
    N3733    N        0.53403    0.67771    0.16909    1.000
    N3734    N        0.63723    0.76157    0.13771    1.000
    Si3735   Si       0.72731    0.72661    0.15234    1.000
    N3736    N        0.63220    0.69224    0.11658    1.000
    N3737    N        0.69191    0.72139    0.12421    1.000
    Si3738   Si       0.65106    0.72306    0.14134    1.000
    N3739    N        0.57110    0.60219    0.19777    1.000
    Si3740   Si       0.55736    0.56221    0.19886    1.000
    N3741    N        0.58986    0.53577    0.21098    1.000
    Si3742   Si       0.61082    0.61575    0.18801    1.000
    N3743    N        0.52622    0.57013    0.23006    1.000
    Si3744   Si       0.63124    0.54473    0.19780    1.000
    Si3745   Si       0.69884    0.52256    0.22566    1.000
    N3746    N        0.70999    0.51959    0.18477    1.000
    N3747    N        0.63391    0.62382    0.22390    1.000
    N3748    N        0.71435    0.63022    0.21029    1.000
    N3749    N        0.65984    0.54409    0.22923    1.000
    Si3750   Si       0.55246    0.64042    0.17836    1.000
    N3751    N        0.52267    0.63946    0.21342    1.000
    Si3752   Si       0.60874    0.69299    0.19467    1.000
    Si3753   Si       0.51466    0.75077    0.21133    1.000
    Si3754   Si       0.49884    0.67369    0.19885    1.000
    N3755    N        0.50467    0.71027    0.22523    1.000
    N3756    N        0.58417    0.72574    0.17813    1.000
    Si3757   Si       0.73874    0.66679    0.20321    1.000
    N3758    N        0.71904    0.70016    0.18588    1.000
    N3759    N        0.67848    0.74979    0.22465    1.000
    Si3760   Si       0.68274    0.71077    0.20545    1.000
    N3761    N        0.64796    0.70568    0.18070    1.000
    N3762    N        0.57697    0.61422    0.26505    1.000
    N3763    N        0.51685    0.61045    0.27993    1.000
    Si3764   Si       0.53950    0.60916    0.24159    1.000
    N3765    N        0.58165    0.51092    0.27800    1.000
    Si3766   Si       0.61971    0.61271    0.26405    1.000
    N3767    N        0.71895    0.55507    0.24676    1.000
    N3768    N        0.67641    0.61003    0.26407    1.000
    Si3769   Si       0.66981    0.56549    0.26742    1.000
    N3770    N        0.62708    0.57029    0.28114    1.000
    Si3771   Si       0.73447    0.59566    0.23157    1.000
    Si3772   Si       0.72887    0.54741    0.28812    1.000
    N3773    N        0.60578    0.74774    0.25703    1.000
    N3774    N        0.60488    0.68733    0.23627    1.000
    Si3775   Si       0.61131    0.70684    0.27283    1.000
    Si3776   Si       0.68945    0.69750    0.27488    1.000
    N3777    N        0.67973    0.68026    0.23670    1.000
    N3778    N        0.72072    0.72594    0.27319    1.000
    Si3779   Si       0.67550    0.63689    0.23002    1.000
    N3780    N        0.56938    0.56848    0.31893    1.000
    Si3781   Si       0.55528    0.60542    0.30191    1.000
    Si3782   Si       0.60105    0.54191    0.30272    1.000
    Si3783   Si       0.49045    0.54913    0.34636    1.000
    N3784    N        0.61634    0.51683    0.33805    1.000
    N3785    N        0.69140    0.55734    0.30735    1.000
    N3786    N        0.68034    0.61734    0.34110    1.000
    Si3787   Si       0.68669    0.57407    0.34722    1.000
    N3788    N        0.55732    0.63863    0.32880    1.000
    N3789    N        0.58605    0.69841    0.30713    1.000
    Si3790   Si       0.55880    0.72920    0.32458    1.000
    Si3791   Si       0.59608    0.65701    0.32160    1.000
    N3792    N        0.52606    0.70506    0.33860    1.000
    N3793    N        0.54587    0.75292    0.29048    1.000
    Si3794   Si       0.65309    0.73884    0.32637    1.000
    Si3795   Si       0.67439    0.63318    0.30201    1.000
    N3796    N        0.69611    0.73928    0.33536    1.000
    N3797    N        0.65226    0.71413    0.29101    1.000
    Si3798   Si       0.72484    0.75487    0.30504    1.000
    N3799    N        0.70542    0.66250    0.29625    1.000
    N3800    N        0.62936    0.64142    0.29667    1.000
    N3801    N        0.59000    0.55476    0.38800    1.000
    N3802    N        0.52387    0.55758    0.37350    1.000
    Si3803   Si       0.56084    0.54764    0.35647    1.000
    Si3804   Si       0.62604    0.53299    0.37940    1.000
    N3805    N        0.65829    0.56134    0.37730    1.000
    N3806    N        0.72153    0.56801    0.36829    1.000
    Si3807   Si       0.49275    0.72735    0.35475    1.000
    N3808    N        0.54843    0.66614    0.39201    1.000
    N3809    N        0.50475    0.72958    0.39594    1.000
    Si3810   Si       0.58858    0.65485    0.39913    1.000
    Si3811   Si       0.53103    0.66443    0.35227    1.000
    N3812    N        0.49150    0.65175    0.37165    1.000
    N3813    N        0.61135    0.65538    0.36284    1.000
    N3814    N        0.56674    0.75920    0.35548    1.000
    N3815    N        0.73356    0.63550    0.39041    1.000
    Si3816   Si       0.63604    0.68781    0.37802    1.000
    Si3817   Si       0.70311    0.71693    0.37037    1.000
    N3818    N        0.62986    0.72445    0.36004    1.000
    Si3819   Si       0.69052    0.63785    0.37760    1.000
    N3820    N        0.67896    0.67962    0.37506    1.000
    N3821    N        0.54920    0.55129    0.43530    1.000
    Si3822   Si       0.58505    0.57628    0.43016    1.000
    N3823    N        0.59461    0.61890    0.42361    1.000
    N3824    N        0.50850    0.60598    0.42752    1.000
    Si3825   Si       0.51504    0.56576    0.41563    1.000
    Si3826   Si       0.72611    0.60515    0.42134    1.000
    N3827    N        0.62849    0.56539    0.44165    1.000
    N3828    N        0.70073    0.56102    0.43796    1.000
    Si3829   Si       0.62308    0.52428    0.45136    1.000
    Si3830   Si       0.66497    0.57711    0.41845    1.000
    N3831    N        0.72129    0.62546    0.46087    1.000
    N3832    N        0.67669    0.61845    0.41507    1.000
    N3833    N        0.50611    0.67464    0.43983    1.000
    N3834    N        0.56022    0.72137    0.43903    1.000
    Si3835   Si       0.60372    0.72163    0.43791    1.000
    Si3836   Si       0.52924    0.70232    0.41399    1.000
    Si3837   Si       0.51160    0.64468    0.40973    1.000
    N3838    N        0.61572    0.75621    0.41582    1.000
    N3839    N        0.67440    0.68452    0.46769    1.000
    N3840    N        0.61762    0.68513    0.41728    1.000
    Si3841   Si       0.68005    0.64085    0.45436    1.000
    N3842    N        0.74027    0.71642    0.46502    1.000
    N3843    N        0.70446    0.73482    0.40932    1.000
    N3844    N        0.57886    0.59142    0.47584    1.000
    Si3845   Si       0.57571    0.58360    0.51727    1.000
    Si3846   Si       0.50296    0.61448    0.52138    1.000
    N3847    N        0.58561    0.50969    0.46990    1.000
    Si3848   Si       0.60218    0.62507    0.46544    1.000
    N3849    N        0.68152    0.57631    0.51153    1.000
    N3850    N        0.71840    0.52897    0.50295    1.000
    Si3851   Si       0.68705    0.54804    0.47938    1.000
    N3852    N        0.65712    0.51501    0.47406    1.000
    Si3853   Si       0.73506    0.62911    0.50101    1.000
    N3854    N        0.64577    0.62685    0.47701    1.000
    Si3855   Si       0.65730    0.61346    0.52033    1.000
    Si3856   Si       0.54378    0.73913    0.47425    1.000
    N3857    N        0.51842    0.64943    0.50163    1.000
    N3858    N        0.58993    0.66268    0.48345    1.000
    N3859    N        0.53635    0.71339    0.50803    1.000
    Si3860   Si       0.55471    0.67352    0.50792    1.000
    Si3861   Si       0.61135    0.75710    0.50157    1.000
    N3862    N        0.70588    0.71150    0.52612    1.000
    Si3863   Si       0.69988    0.71773    0.48326    1.000
    N3864    N        0.61903    0.72141    0.47772    1.000
    Si3865   Si       0.63237    0.67779    0.48584    1.000
    N3866    N        0.69889    0.63947    0.52117    1.000
    N3867    N        0.68721    0.75815    0.47207    1.000
    Si3868   Si       0.53656    0.55141    0.55536    1.000
    N3869    N        0.50579    0.52726    0.53878    1.000
    N3870    N        0.53773    0.59222    0.53455    1.000
    N3871    N        0.57163    0.54227    0.53110    1.000
    N3872    N        0.61546    0.59833    0.53124    1.000
    N3873    N        0.66273    0.61219    0.56980    1.000
    N3874    N        0.72640    0.54268    0.56920    1.000
    Si3875   Si       0.62227    0.59900    0.57343    1.000
    Si3876   Si       0.71934    0.56273    0.52981    1.000
    N3877    N        0.66472    0.51738    0.58362    1.000
    N3878    N        0.57321    0.67677    0.54829    1.000
    N3879    N        0.61032    0.74412    0.54270    1.000
    Si3880   Si       0.49604    0.72035    0.52528    1.000
    Si3881   Si       0.61081    0.70100    0.55106    1.000
    Si3882   Si       0.68496    0.67704    0.54103    1.000
    Si3883   Si       0.71880    0.74632    0.55056    1.000
    N3884    N        0.68935    0.67055    0.58303    1.000
    N3885    N        0.64298    0.67819    0.52834    1.000
    N3886    N        0.53830    0.56167    0.59712    1.000
    Si3887   Si       0.58558    0.58790    0.62563    1.000
    Si3888   Si       0.52293    0.60349    0.60537    1.000
    Si3889   Si       0.53627    0.53279    0.63208    1.000
    N3890    N        0.58947    0.62117    0.59371    1.000
    N3891    N        0.48963    0.53310    0.63975    1.000
    N3892    N        0.61738    0.56741    0.60154    1.000
    Si3893   Si       0.63488    0.52995    0.61440    1.000
    N3894    N        0.72167    0.56190    0.63559    1.000
    N3895    N        0.68942    0.62039    0.63793    1.000
    Si3896   Si       0.69556    0.62660    0.59516    1.000
    N3897    N        0.73588    0.60973    0.58818    1.000
    Si3898   Si       0.59110    0.71544    0.62096    1.000
    N3899    N        0.56720    0.67919    0.62492    1.000
    N3900    N        0.57727    0.75259    0.60599    1.000
    N3901    N        0.52199    0.64410    0.58675    1.000
    Si3902   Si       0.56314    0.65613    0.58802    1.000
    Si3903   Si       0.66296    0.69419    0.60835    1.000
    N3904    N        0.66949    0.73362    0.63047    1.000
    N3905    N        0.72593    0.74231    0.59367    1.000
    N3906    N        0.62238    0.70168    0.59296    1.000
    Si3907   Si       0.70273    0.76028    0.62435    1.000
    Si3908   Si       0.53145    0.61397    0.68284    1.000
    N3909    N        0.49816    0.58663    0.67842    1.000
    N3910    N        0.57215    0.55406    0.65266    1.000
    Si3911   Si       0.57863    0.54911    0.69554    1.000
    N3912    N        0.61353    0.61423    0.65307    1.000
    Si3913   Si       0.61268    0.61171    0.70116    1.000
    N3914    N        0.54719    0.61607    0.64020    1.000
    Si3915   Si       0.72433    0.59990    0.65833    1.000
    N3916    N        0.71670    0.51896    0.68965    1.000
    N3917    N        0.65734    0.53307    0.65300    1.000
    Si3918   Si       0.70046    0.52988    0.65261    1.000
    Si3919   Si       0.64019    0.51283    0.69045    1.000
    N3920    N        0.71687    0.58473    0.69970    1.000
    Si3921   Si       0.65306    0.63495    0.65813    1.000
    N3922    N        0.65428    0.62678    0.70284    1.000
    N3923    N        0.61991    0.56802    0.70328    1.000
    N3924    N        0.60664    0.73184    0.66095    1.000
    Si3925   Si       0.57454    0.74888    0.68234    1.000
    Si3926   Si       0.49624    0.73578    0.67112    1.000
    N3927    N        0.53743    0.74917    0.65944    1.000
    N3928    N        0.50554    0.64508    0.69555    1.000
    N3929    N        0.58495    0.65227    0.69178    1.000
    Si3930   Si       0.58122    0.64441    0.64938    1.000
    Si3931   Si       0.70332    0.75003    0.70435    1.000
    N3932    N        0.65005    0.67604    0.64901    1.000
    Si3933   Si       0.64667    0.71686    0.66438    1.000
    N3934    N        0.60367    0.61368    0.74577    1.000
    Si3935   Si       0.56637    0.58860    0.75279    1.000
    N3936    N        0.55503    0.58993    0.71000    1.000
    N3937    N        0.50127    0.56667    0.75371    1.000
    Si3938   Si       0.50341    0.55500    0.70962    1.000
    N3939    N        0.58598    0.54929    0.75583    1.000
    N3940    N        0.53737    0.52762    0.70405    1.000
    N3941    N        0.65658    0.52093    0.73094    1.000
    Si3942   Si       0.69473    0.61996    0.71654    1.000
    Si3943   Si       0.62758    0.55351    0.74480    1.000
    Si3944   Si       0.73392    0.54778    0.71620    1.000
    N3945    N        0.72108    0.54016    0.75827    1.000
    Si3946   Si       0.68773    0.51212    0.75918    1.000
    N3947    N        0.70292    0.61552    0.75822    1.000
    Si3948   Si       0.58256    0.68365    0.72212    1.000
    N3949    N        0.56777    0.72543    0.71787    1.000
    Si3950   Si       0.53020    0.73888    0.73175    1.000
    Si3951   Si       0.50823    0.67547    0.72535    1.000
    N3952    N        0.54945    0.67162    0.74801    1.000
    N3953    N        0.50625    0.71426    0.70642    1.000
    Si3954   Si       0.65326    0.70819    0.74020    1.000
    N3955    N        0.71925    0.65448    0.70263    1.000
    N3956    N        0.69274    0.69659    0.75743    1.000
    N3957    N        0.62003    0.68160    0.74354    1.000
    Si3958   Si       0.72413    0.68711    0.73153    1.000
    N3959    N        0.73618    0.72460    0.71410    1.000
    N3960    N        0.64045    0.74256    0.76117    1.000
    N3961    N        0.66941    0.72374    0.70185    1.000
    N3962    N        0.54704    0.59628    0.79362    1.000
    Si3963   Si       0.51645    0.56260    0.79295    1.000
    N3964    N        0.53025    0.52145    0.80233    1.000
    Si3965   Si       0.56912    0.51732    0.78206    1.000
    N3966    N        0.60291    0.51160    0.80923    1.000
    Si3967   Si       0.64391    0.52959    0.80744    1.000
    Si3968   Si       0.72954    0.61238    0.79181    1.000
    N3969    N        0.65208    0.56338    0.77933    1.000
    Si3970   Si       0.67059    0.60200    0.78522    1.000
    N3971    N        0.69862    0.59980    0.81822    1.000
    N3972    N        0.58511    0.65564    0.80206    1.000
    N3973    N        0.52014    0.72370    0.77240    1.000
    Si3974   Si       0.54562    0.75088    0.79383    1.000
    Si3975   Si       0.54872    0.68643    0.79012    1.000
    N3976    N        0.52262    0.65910    0.81365    1.000
    Si3977   Si       0.61315    0.64811    0.76794    1.000
    Si3978   Si       0.70480    0.71856    0.79393    1.000
    N3979    N        0.64382    0.63534    0.79438    1.000
    N3980    N        0.59544    0.61556    0.84884    1.000
    N3981    N        0.53297    0.60978    0.85948    1.000
    Si3982   Si       0.50354    0.57835    0.86437    1.000
    N3983    N        0.57677    0.53994    0.86695    1.000
    Si3984   Si       0.60692    0.51136    0.85279    1.000
    Si3985   Si       0.58507    0.58158    0.87477    1.000
    Si3986   Si       0.55558    0.62736    0.82388    1.000
    N3987    N        0.64399    0.53804    0.85056    1.000
    Si3988   Si       0.69214    0.61386    0.85808    1.000
    Si3989   Si       0.59912    0.72213    0.84188    1.000
    Si3990   Si       0.54117    0.73587    0.85408    1.000
    N3991    N        0.50434    0.72586    0.87496    1.000
    N3992    N        0.56215    0.71703    0.81979    1.000
    N3993    N        0.69569    0.69071    0.82618    1.000
    N3994    N        0.62778    0.68794    0.84397    1.000
    Si3995   Si       0.62191    0.64629    0.82959    1.000
    N3996    N        0.65529    0.63816    0.86334    1.000
    N3997    N        0.72073    0.64744    0.86215    1.000
    N3998    N        0.62319    0.75417    0.83190    1.000
    Si3999   Si       0.66890    0.67946    0.85924    1.000
    Si4000   Si       0.73697    0.67626    0.83038    1.000
    N4001    N        0.56540    0.59583    0.91128    1.000
    Si4002   Si       0.54584    0.51916    0.88918    1.000
    N4003    N        0.55768    0.51288    0.93167    1.000
    Si4004   Si       0.54647    0.63144    0.89704    1.000
    N4005    N        0.51070    0.54009    0.88310    1.000
    Si4006   Si       0.73542    0.56199    0.89157    1.000
    N4007    N        0.73087    0.52116    0.90683    1.000
    N4008    N        0.62459    0.58337    0.89422    1.000
    N4009    N        0.65804    0.52202    0.91488    1.000
    Si4010   Si       0.65771    0.55632    0.88806    1.000
    N4011    N        0.69519    0.58135    0.88678    1.000
    Si4012   Si       0.62188    0.62717    0.89068    1.000
    Si4013   Si       0.51691    0.73518    0.91576    1.000
    N4014    N        0.58490    0.65451    0.89715    1.000
    Si4015   Si       0.59969    0.74163    0.91576    1.000
    N4016    N        0.51454    0.64960    0.91966    1.000
    Si4017   Si       0.58094    0.67887    0.93326    1.000
    N4018    N        0.54651    0.70561    0.93236    1.000
    N4019    N        0.61441    0.70652    0.93687    1.000
    N4020    N        0.57805    0.73587    0.87816    1.000
    N4021    N        0.68859    0.69644    0.89520    1.000
    N4022    N        0.63942    0.75752    0.90106    1.000
    Si4023   Si       0.72888    0.68029    0.88995    1.000
    Si4024   Si       0.67846    0.73810    0.90504    1.000
    N4025    N        0.63148    0.63242    0.93504    1.000
    N4026    N        0.59069    0.57826    0.96948    1.000
    Si4027   Si       0.58137    0.53710    0.96125    1.000
    Si4028   Si       0.51168    0.51323    0.98349    1.000
    Si4029   Si       0.59275    0.61238    0.94367    1.000
    N4030    N        0.48991    0.54408    0.95945    1.000
    N4031    N        0.55335    0.52805    0.99366    1.000
    N4032    N        0.61690    0.51634    0.97321    1.000
    Si4033   Si       0.72905    0.51985    0.94973    1.000
    Si4034   Si       0.65553    0.52701    0.95758    1.000
    Si4035   Si       0.70010    0.58080    0.98429    1.000
    N4036    N        0.69817    0.62413    0.97708    1.000
    N4037    N        0.66078    0.56724    0.97170    1.000
    N4038    N        0.73084    0.56303    0.95908    1.000
    N4039    N        0.51424    0.67124    0.98967    1.000
    Si4040   Si       0.51352    0.68246    0.94843    1.000
    N4041    N        0.57104    0.64580    0.96152    1.000
    Si4042   Si       0.54091    0.63561    0.99046    1.000
    Si4043   Si       0.63522    0.70603    0.97491    1.000
    N4044    N        0.69639    0.73967    0.94475    1.000
    N4045    N        0.66901    0.68056    0.96865    1.000
    N4046    N        0.64552    0.74414    0.99144    1.000
    Si4047   Si       0.70928    0.69548    0.95388    1.000
    Si4048   Si       0.65794    0.63889    0.96952    1.000
    Si4049   Si       0.56981    0.80521    0.01149    1.000
    N4050    N        0.55635    0.82974    0.04412    1.000
    N4051    N        0.58512    0.76209    0.02307    1.000
    Si4052   Si       0.49890    0.78225    0.00137    1.000
    Si4053   Si       0.51369    0.83938    0.05081    1.000
    N4054    N        0.50597    0.87826    0.03384    1.000
    N4055    N        0.69601    0.81705    0.04395    1.000
    Si4056   Si       0.70144    0.83682    0.00678    1.000
    N4057    N        0.64482    0.77711    0.05280    1.000
    N4058    N        0.67259    0.86970    0.00351    1.000
    Si4059   Si       0.60018    0.94921    0.03675    1.000
    N4060    N        0.55835    0.94533    0.04708    1.000
    Si4061   Si       0.53497    0.95779    0.01263    1.000
    N4062    N        0.53205    0.00194    0.01647    1.000
    N4063    N        0.60266    0.97611    0.00332    1.000
    N4064    N        0.49271    0.94444    0.01362    1.000
    N4065    N        0.68365    0.97246    0.04259    1.000
    N4066    N        0.62057    0.91167    0.02847    1.000
    N4067    N        0.72943    0.92437    0.03179    1.000
    Si4068   Si       0.58639    0.83281    0.07657    1.000
    N4069    N        0.59575    0.79417    0.09357    1.000
    Si4070   Si       0.60521    0.76564    0.06361    1.000
    N4071    N        0.49306    0.84753    0.08945    1.000
    N4072    N        0.62437    0.84784    0.06156    1.000
    Si4073   Si       0.65626    0.81716    0.06427    1.000
    N4074    N        0.72967    0.86842    0.07853    1.000
    Si4075   Si       0.71432    0.82575    0.08338    1.000
    N4076    N        0.67648    0.82717    0.10169    1.000
    Si4077   Si       0.54219    0.94468    0.08627    1.000
    N4078    N        0.53400    0.90302    0.09610    1.000
    N4079    N        0.50318    0.96226    0.08729    1.000
    N4080    N        0.60611    0.90170    0.09869    1.000
    Si4081   Si       0.49367    0.88992    0.09744    1.000
    N4082    N        0.62297    0.96803    0.06827    1.000
    Si4083   Si       0.70544    0.89375    0.10414    1.000
    Si4084   Si       0.70034    0.93744    0.06188    1.000
    Si4085   Si       0.61453    0.94530    0.10567    1.000
    N4086    N        0.72500    0.93241    0.10042    1.000
    Si4087   Si       0.65528    0.99677    0.06380    1.000
    N4088    N        0.67328    0.90346    0.07366    1.000
    Si4089   Si       0.63229    0.89109    0.06552    1.000
    N4090    N        0.57465    0.79193    0.15750    1.000
    Si4091   Si       0.54444    0.81951    0.13967    1.000
    N4092    N        0.51658    0.79419    0.11865    1.000
    N4093    N        0.51979    0.84007    0.16933    1.000
    Si4094   Si       0.61092    0.79489    0.13393    1.000
    N4095    N        0.56583    0.84689    0.11031    1.000
    N4096    N        0.63071    0.83077    0.15228    1.000
    Si4097   Si       0.67124    0.84464    0.14199    1.000
    N4098    N        0.70462    0.82790    0.16517    1.000
    Si4099   Si       0.73543    0.80013    0.15460    1.000
    N4100    N        0.72019    0.76435    0.17224    1.000
    Si4101   Si       0.49170    0.97883    0.12566    1.000
    Si4102   Si       0.51569    0.88524    0.16830    1.000
    N4103    N        0.57293    0.95708    0.11528    1.000
    N4104    N        0.55776    0.89717    0.15897    1.000
    Si4105   Si       0.56498    0.98128    0.14851    1.000
    N4106    N        0.52094    0.96890    0.15716    1.000
    Si4107   Si       0.56911    0.88891    0.11769    1.000
    Si4108   Si       0.65952    0.99335    0.13842    1.000
    N4109    N        0.64559    0.95243    0.13475    1.000
    N4110    N        0.69778    0.99520    0.15901    1.000
    N4111    N        0.68112    0.88736    0.14030    1.000
    Si4112   Si       0.66153    0.92254    0.16199    1.000
    N4113    N        0.58680    0.84985    0.20810    1.000
    Si4114   Si       0.58480    0.76742    0.19221    1.000
    N4115    N        0.55267    0.76847    0.22188    1.000
    N4116    N        0.62011    0.78560    0.20591    1.000
    Si4117   Si       0.62306    0.82781    0.19415    1.000
    Si4118   Si       0.69664    0.84305    0.20476    1.000
    N4119    N        0.65518    0.85087    0.21342    1.000
    Si4120   Si       0.71568    0.77110    0.21480    1.000
    N4121    N        0.71965    0.87780    0.21310    1.000
    N4122    N        0.70826    0.81036    0.23035    1.000
    Si4123   Si       0.58737    0.89081    0.19263    1.000
    N4124    N        0.50516    0.89869    0.20971    1.000
    N4125    N        0.58366    0.97598    0.18707    1.000
    Si4126   Si       0.50698    0.98604    0.19469    1.000
    Si4127   Si       0.57115    0.95791    0.22360    1.000
    N4128    N        0.57067    0.91516    0.22496    1.000
    N4129    N        0.53031    0.97277    0.22931    1.000
    N4130    N        0.62426    0.90510    0.17692    1.000
    Si4131   Si       0.61447    0.00592    0.19522    1.000
    Si4132   Si       0.69341    0.97789    0.19858    1.000
    N4133    N        0.69246    0.93440    0.19059    1.000
    Si4134   Si       0.69737    0.91431    0.22936    1.000
    N4135    N        0.71673    0.99882    0.22839    1.000
    N4136    N        0.65024    0.98129    0.20834    1.000
    N4137    N        0.58657    0.81078    0.27459    1.000
    N4138    N        0.54199    0.86114    0.26082    1.000
    Si4139   Si       0.58134    0.84757    0.25047    1.000
    Si4140   Si       0.57098    0.77163    0.26233    1.000
    N4141    N        0.50103    0.80819    0.27834    1.000
    N4142    N        0.61323    0.87066    0.27026    1.000
    N4143    N        0.65172    0.79881    0.26913    1.000
    Si4144   Si       0.69053    0.81685    0.26753    1.000
    Si4145   Si       0.65008    0.87728    0.24938    1.000
    N4146    N        0.68467    0.86023    0.27275    1.000
    Si4147   Si       0.64079    0.76914    0.23895    1.000
    Si4148   Si       0.51550    0.96735    0.26907    1.000
    N4149    N        0.52446    0.92491    0.27530    1.000
    N4150    N        0.59701    0.96542    0.25729    1.000
    Si4151   Si       0.53414    0.90004    0.24076    1.000
    Si4152   Si       0.57929    0.97975    0.29383    1.000
    Si4153   Si       0.69881    0.00845    0.26548    1.000
    N4154    N        0.65611    0.91874    0.24358    1.000
    N4155    N        0.66158    0.98586    0.27229    1.000
    N4156    N        0.72007    0.91843    0.26618    1.000
    Si4157   Si       0.63931    0.95804    0.24476    1.000
    N4158    N        0.50147    0.87277    0.31042    1.000
    N4159    N        0.53845    0.82054    0.33466    1.000
    Si4160   Si       0.50797    0.77065    0.29710    1.000
    Si4161   Si       0.60872    0.87776    0.31257    1.000
    N4162    N        0.50030    0.76600    0.33966    1.000
    Si4163   Si       0.52594    0.83934    0.29581    1.000
    N4164    N        0.56612    0.87732    0.32350    1.000
    N4165    N        0.62909    0.84156    0.32805    1.000
    Si4166   Si       0.72684    0.82250    0.33067    1.000
    N4167    N        0.63441    0.77802    0.33296    1.000
    N4168    N        0.71540    0.79644    0.29866    1.000
    Si4169   Si       0.62017    0.80441    0.30071    1.000
    Si4170   Si       0.66129    0.86936    0.34504    1.000
    Si4171   Si       0.53276    0.90293    0.30911    1.000
    N4172    N        0.58392    0.94796    0.32334    1.000
    N4173    N        0.53761    0.99181    0.30081    1.000
    Si4174   Si       0.52122    0.00126    0.34049    1.000
    N4175    N        0.52764    0.92470    0.34588    1.000
    Si4176   Si       0.69724    0.99946    0.34441    1.000
    Si4177   Si       0.68508    0.93237    0.34944    1.000
    Si4178   Si       0.71327    0.88546    0.29478    1.000
    N4179    N        0.63516    0.90443    0.33300    1.000
    Si4180   Si       0.64195    0.99615    0.30947    1.000
    N4181    N        0.72157    0.99702    0.29945    1.000
    N4182    N        0.69658    0.89488    0.33318    1.000
    N4183    N        0.65651    0.96382    0.33461    1.000
    Si4184   Si       0.62044    0.94241    0.34696    1.000
    N4185    N        0.57159    0.85946    0.39130    1.000
    N4186    N        0.51074    0.87308    0.38582    1.000
    Si4187   Si       0.53266    0.78678    0.36099    1.000
    N4188    N        0.51362    0.80252    0.39572    1.000
    Si4189   Si       0.54481    0.85769    0.35642    1.000
    Si4190   Si       0.60729    0.76153    0.36979    1.000
    Si4191   Si       0.61304    0.85832    0.40920    1.000
    N4192    N        0.61324    0.80987    0.38271    1.000
    N4193    N        0.64931    0.86844    0.38786    1.000
    Si4194   Si       0.70753    0.82249    0.39393    1.000
    N4195    N        0.68761    0.83118    0.35272    1.000
    Si4196   Si       0.64835    0.81318    0.35641    1.000
    Si4197   Si       0.56076    0.94824    0.36043    1.000
    Si4198   Si       0.57271    0.99974    0.40784    1.000
    N4199    N        0.54844    0.98757    0.37143    1.000
    N4200    N        0.59825    0.94799    0.38423    1.000
    Si4201   Si       0.49280    0.91069    0.36857    1.000
    N4202    N        0.68312    0.92714    0.39259    1.000
    Si4203   Si       0.70409    0.96615    0.39731    1.000
    N4204    N        0.67808    0.99952    0.38501    1.000
    N4205    N        0.72061    0.95929    0.35424    1.000
    N4206    N        0.53600    0.87149    0.45817    1.000
    Si4207   Si       0.49647    0.76768    0.41660    1.000
    N4208    N        0.50823    0.75793    0.45808    1.000
    Si4209   Si       0.49496    0.87681    0.46606    1.000
    N4210    N        0.67402    0.79780    0.40689    1.000
    N4211    N        0.62109    0.83108    0.44279    1.000
    Si4212   Si       0.72473    0.83833    0.45631    1.000
    Si4213   Si       0.63068    0.79553    0.41994    1.000
    Si4214   Si       0.69887    0.77065    0.43142    1.000
    N4215    N        0.70992    0.85934    0.41977    1.000
    N4216    N        0.72978    0.80070    0.43441    1.000
    N4217    N        0.58989    0.97797    0.43986    1.000
    Si4218   Si       0.54466    0.88274    0.41652    1.000
    N4219    N        0.54556    0.92544    0.41888    1.000
    N4220    N        0.60694    0.89793    0.42968    1.000
    Si4221   Si       0.50879    0.94337    0.43377    1.000
    N4222    N        0.50304    0.98243    0.45889    1.000
    Si4223   Si       0.58695    0.93644    0.42493    1.000
    N4224    N        0.66780    0.90580    0.45258    1.000
    Si4225   Si       0.67820    0.89057    0.41367    1.000
    Si4226   Si       0.62943    0.89523    0.46829    1.000
    N4227    N        0.58020    0.83873    0.50058    1.000
    N4228    N        0.51593    0.81603    0.50433    1.000
    Si4229   Si       0.55782    0.80402    0.50911    1.000
    N4230    N        0.57207    0.77071    0.48522    1.000
    Si4231   Si       0.56320    0.87830    0.49411    1.000
    N4232    N        0.53424    0.88353    0.52625    1.000
    Si4233   Si       0.62074    0.82990    0.48535    1.000
    N4234    N        0.64434    0.86424    0.49556    1.000
    N4235    N        0.69519    0.82343    0.48717    1.000
    Si4236   Si       0.67899    0.78716    0.50337    1.000
    N4237    N        0.63561    0.79210    0.50084    1.000
    Si4238   Si       0.68325    0.85524    0.51323    1.000
    N4239    N        0.59464    0.90760    0.49133    1.000
    Si4240   Si       0.50590    0.98977    0.50248    1.000
    N4241    N        0.59195    0.97540    0.51061    1.000
    Si4242   Si       0.61090    0.93632    0.51867    1.000
    Si4243   Si       0.60120    0.99963    0.47425    1.000
    N4244    N        0.70468    0.96272    0.48058    1.000
    N4245    N        0.70630    0.89237    0.50646    1.000
    Si4246   Si       0.67100    0.98340    0.49900    1.000
    N4247    N        0.64291    0.00804    0.47941    1.000
    Si4248   Si       0.68677    0.92449    0.48800    1.000
    N4249    N        0.65333    0.94266    0.51022    1.000
    N4250    N        0.55957    0.78954    0.55018    1.000
    N4251    N        0.51346    0.83139    0.56902    1.000
    Si4252   Si       0.51670    0.78773    0.56012    1.000
    Si4253   Si       0.59361    0.77344    0.57131    1.000
    Si4254   Si       0.50412    0.85098    0.53119    1.000
    N4255    N        0.67938    0.84495    0.55539    1.000
    N4256    N        0.68744    0.77659    0.54541    1.000
    Si4257   Si       0.66776    0.80508    0.57506    1.000
    N4258    N        0.62453    0.80079    0.58523    1.000
    Si4259   Si       0.55863    0.98830    0.53458    1.000
    N4260    N        0.60560    0.91638    0.55616    1.000
    Si4261   Si       0.52290    0.92151    0.54529    1.000
    N4262    N        0.52572    0.96074    0.52815    1.000
    N4263    N        0.54488    0.92196    0.58353    1.000
    Si4264   Si       0.66783    0.00047    0.57479    1.000
    N4265    N        0.68199    0.00636    0.53383    1.000
    N4266    N        0.67435    0.91489    0.58413    1.000
    N4267    N        0.63335    0.97420    0.58157    1.000
    Si4268   Si       0.63619    0.93175    0.58329    1.000
    N4269    N        0.55232    0.80999    0.62892    1.000
    N4270    N        0.50699    0.86039    0.62924    1.000
    Si4271   Si       0.53722    0.84298    0.60339    1.000
    Si4272   Si       0.54289    0.76949    0.62334    1.000
    N4273    N        0.57772    0.86116    0.59735    1.000
    Si4274   Si       0.61235    0.83483    0.60996    1.000
    N4275    N        0.51171    0.76179    0.59417    1.000
    N4276    N        0.69341    0.79981    0.60936    1.000
    N4277    N        0.71535    0.86413    0.61835    1.000
    N4278    N        0.64994    0.85710    0.61469    1.000
    Si4279   Si       0.71500    0.82565    0.63803    1.000
    Si4280   Si       0.68195    0.87192    0.59119    1.000
    N4281    N        0.54889    0.97662    0.62716    1.000
    Si4282   Si       0.52974    0.94057    0.61916    1.000
    Si4283   Si       0.58280    0.90181    0.58865    1.000
    Si4284   Si       0.60782    0.00979    0.59063    1.000
    N4285    N        0.61475    0.91723    0.61703    1.000
    Si4286   Si       0.70029    0.94164    0.60762    1.000
    N4287    N        0.70353    0.98232    0.59107    1.000
    N4288    N        0.54453    0.85224    0.68523    1.000
    Si4289   Si       0.56953    0.82126    0.66707    1.000
    N4290    N        0.57715    0.79008    0.69872    1.000
    N4291    N        0.60892    0.83086    0.65512    1.000
    Si4292   Si       0.51916    0.87972    0.66524    1.000
    N4293    N        0.71828    0.76748    0.66356    1.000
    Si4294   Si       0.64736    0.85064    0.65809    1.000
    N4295    N        0.68526    0.82846    0.67012    1.000
    N4296    N        0.54226    0.91643    0.65506    1.000
    Si4297   Si       0.57217    0.93562    0.68078    1.000
    N4298    N        0.56268    0.97746    0.69455    1.000
    Si4299   Si       0.56912    0.99901    0.65630    1.000
    N4300    N        0.61338    0.94746    0.67380    1.000
    N4301    N        0.66102    0.98570    0.70077    1.000
    Si4302   Si       0.64047    0.92327    0.65138    1.000
    N4303    N        0.72565    0.99192    0.68259    1.000
    Si4304   Si       0.69204    0.96420    0.68284    1.000
    N4305    N        0.65102    0.88970    0.67570    1.000
    Si4306   Si       0.61644    0.98087    0.70123    1.000
    N4307    N        0.67906    0.94422    0.64634    1.000
    Si4308   Si       0.55342    0.87203    0.72224    1.000
    Si4309   Si       0.56245    0.79794    0.74078    1.000
    N4310    N        0.56202    0.84086    0.75112    1.000
    N4311    N        0.52398    0.78212    0.73853    1.000
    N4312    N        0.68677    0.78344    0.72547    1.000
    N4313    N        0.69013    0.85967    0.73030    1.000
    Si4314   Si       0.69698    0.82177    0.70887    1.000
    N4315    N        0.51403    0.88801    0.73638    1.000
    Si4316   Si       0.53919    0.99189    0.72761    1.000
    Si4317   Si       0.60126    0.91892    0.74583    1.000
    N4318    N        0.57640    0.90700    0.71253    1.000
    N4319    N        0.52983    0.96130    0.75578    1.000
    N4320    N        0.60901    0.96051    0.74021    1.000
    N4321    N        0.50224    0.00108    0.70799    1.000
    Si4322   Si       0.73688    0.99218    0.72433    1.000
    N4323    N        0.64206    0.90254    0.74579    1.000
    Si4324   Si       0.73288    0.91695    0.73531    1.000
    Si4325   Si       0.67204    0.89595    0.71557    1.000
    N4326    N        0.70253    0.92912    0.70681    1.000
    N4327    N        0.70646    0.00990    0.74886    1.000
    Si4328   Si       0.56464    0.86281    0.78988    1.000
    N4329    N        0.57700    0.77429    0.77518    1.000
    N4330    N        0.60119    0.85362    0.81322    1.000
    N4331    N        0.52731    0.86735    0.81402    1.000
    Si4332   Si       0.61668    0.76571    0.78853    1.000
    N4333    N        0.64092    0.79983    0.78568    1.000
    N4334    N        0.67503    0.85671    0.80601    1.000
    Si4335   Si       0.70242    0.86483    0.77269    1.000
    N4336    N        0.73057    0.83023    0.77161    1.000
    Si4337   Si       0.73008    0.79573    0.79820    1.000
    N4338    N        0.70163    0.76223    0.79001    1.000
    Si4339   Si       0.63928    0.83193    0.81543    1.000
    Si4340   Si       0.66891    0.77501    0.76251    1.000
    N4341    N        0.58678    0.98070    0.80211    1.000
    N4342    N        0.57079    0.90358    0.77327    1.000
    N4343    N        0.50075    0.92554    0.79509    1.000
    Si4344   Si       0.49693    0.97128    0.78595    1.000
    Si4345   Si       0.48971    0.89155    0.81680    1.000
    Si4346   Si       0.52818    0.91865    0.76285    1.000
    Si4347   Si       0.55658    0.01105    0.79511    1.000
    N4348    N        0.72964    0.95506    0.81609    1.000
    N4349    N        0.65756    0.96560    0.79533    1.000
    N4350    N        0.71126    0.90896    0.77381    1.000
    Si4351   Si       0.62216    0.98106    0.77488    1.000
    Si4352   Si       0.69026    0.93737    0.80248    1.000
    Si4353   Si       0.51981    0.85702    0.85778    1.000
    N4354    N        0.53121    0.77049    0.82995    1.000
    N4355    N        0.49877    0.82059    0.86028    1.000
    Si4356   Si       0.59449    0.87493    0.85188    1.000
    N4357    N        0.56045    0.85513    0.87211    1.000
    Si4358   Si       0.49474    0.79318    0.82865    1.000
    N4359    N        0.73373    0.81020    0.83957    1.000
    N4360    N        0.64872    0.81348    0.85449    1.000
    Si4361   Si       0.64831    0.77173    0.86048    1.000
    Si4362   Si       0.72205    0.78370    0.87150    1.000
    Si4363   Si       0.69024    0.87760    0.84018    1.000
    N4364    N        0.63256    0.87559    0.86938    1.000
    N4365    N        0.73451    0.88002    0.83297    1.000
    N4366    N        0.69007    0.75695    0.86633    1.000
    N4367    N        0.59240    0.91816    0.84646    1.000
    Si4368   Si       0.58581    0.95954    0.84178    1.000
    N4369    N        0.55381    0.97724    0.86439    1.000
    N4370    N        0.67386    0.91763    0.83887    1.000
    Si4371   Si       0.72726    0.99494    0.83385    1.000
    N4372    N        0.68851    0.99405    0.85535    1.000
    Si4373   Si       0.63584    0.92105    0.86626    1.000
    N4374    N        0.62594    0.96632    0.85917    1.000
    Si4375   Si       0.65145    0.99009    0.83233    1.000
    Si4376   Si       0.55515    0.86170    0.91447    1.000
    N4377    N        0.52472    0.77679    0.91710    1.000
    N4378    N        0.51331    0.84803    0.91882    1.000
    Si4379   Si       0.49993    0.81099    0.90181    1.000
    N4380    N        0.57648    0.83126    0.93507    1.000
    N4381    N        0.71388    0.80220    0.90973    1.000
    N4382    N        0.65005    0.83475    0.92798    1.000
    Si4383   Si       0.73371    0.86777    0.89787    1.000
    Si4384   Si       0.65473    0.84301    0.88472    1.000
    N4385    N        0.69508    0.85959    0.87983    1.000
    Si4386   Si       0.69268    0.82936    0.93725    1.000
    Si4387   Si       0.52932    0.98522    0.89864    1.000
    N4388    N        0.51333    0.94973    0.91871    1.000
    N4389    N        0.56656    0.90184    0.92051    1.000
    Si4390   Si       0.60563    0.91335    0.93017    1.000
    N4391    N        0.60329    0.95860    0.93175    1.000
    N4392    N        0.49244    0.00481    0.88537    1.000
    N4393    N        0.55408    0.00417    0.93071    1.000
    N4394    N        0.70618    0.95411    0.91879    1.000
    Si4395   Si       0.69605    0.99007    0.89674    1.000
    N4396    N        0.64562    0.92287    0.90890    1.000
    Si4397   Si       0.61990    0.98420    0.89923    1.000
    Si4398   Si       0.66619    0.94976    0.93448    1.000
    N4399    N        0.65848    0.99180    0.91808    1.000
    N4400    N        0.53658    0.79772    0.98405    1.000
    N4401    N        0.58709    0.76597    0.95018    1.000
    Si4402   Si       0.55473    0.79511    0.94504    1.000
    N4403    N        0.60695    0.81432    0.99066    1.000
    Si4404   Si       0.60973    0.77014    0.98675    1.000
    Si4405   Si       0.61297    0.84169    0.95499    1.000
    N4406    N        0.69255    0.80821    0.97522    1.000
    Si4407   Si       0.70533    0.76814    0.97564    1.000
    N4408    N        0.72381    0.85838    0.93944    1.000
    N4409    N        0.55374    0.94967    0.97549    1.000
    N4410    N        0.50857    0.89562    0.96769    1.000
    Si4411   Si       0.58179    0.98323    0.96209    1.000
    Si4412   Si       0.53476    0.92282    0.94623    1.000
    N4413    N        0.66571    0.00408    0.98397    1.000
    Si4414   Si       0.64538    0.90096    0.99282    1.000
    N4415    N        0.66719    0.93742    0.97704    1.000
    N4416    N        0.61776    0.88519    0.96205    1.000
    N4417    N        0.73233    0.98164    0.99433    1.000
    Si4418   Si       0.68996    0.97068    0.99992    1.000
    N4419    N        0.81786    0.09355    0.02410    1.000
    Si4420   Si       0.75706    0.01618    0.00695    1.000
    Si4421   Si       0.79382    0.12618    0.00896    1.000
    Si4422   Si       0.85985    0.09178    0.03178    1.000
    N4423    N        0.77515    0.00758    0.04578    1.000
    Si4424   Si       0.98424    0.03200    0.04730    1.000
    Si4425   Si       0.92457    0.06627    0.02784    1.000
    N4426    N        0.96146    0.04413    0.01291    1.000
    N4427    N        0.88611    0.07176    0.00516    1.000
    N4428    N        0.92550    0.10593    0.05140    1.000
    N4429    N        0.75973    0.23315    0.00077    1.000
    N4430    N        0.77847    0.15046    0.04160    1.000
    Si4431   Si       0.77254    0.24619    0.04054    1.000
    N4432    N        0.81600    0.25178    0.03892    1.000
    N4433    N        0.86323    0.20031    0.01778    1.000
    Si4434   Si       0.86522    0.16116    0.99944    1.000
    Si4435   Si       0.90233    0.21750    0.03254    1.000
    N4436    N        0.87111    0.13361    0.03139    1.000
    N4437    N        0.91955    0.18063    0.04953    1.000
    N4438    N        0.93999    0.24026    0.05290    1.000
    N4439    N        0.79838    0.05111    0.10194    1.000
    N4440    N        0.80324    0.11799    0.09587    1.000
    Si4441   Si       0.76495    0.02500    0.08454    1.000
    N4442    N        0.85342    0.07837    0.07172    1.000
    Si4443   Si       0.80911    0.08255    0.06779    1.000
    Si4444   Si       0.76666    0.12661    0.07437    1.000
    Si4445   Si       0.83048    0.02198    0.11346    1.000
    N4446    N        0.76296    0.08612    0.05782    1.000
    Si4447   Si       0.88758    0.06129    0.09087    1.000
    Si4448   Si       0.94973    0.09500    0.08568    1.000
    N4449    N        0.97889    0.06560    0.07581    1.000
    N4450    N        0.91189    0.04105    0.06261    1.000
    N4451    N        0.91886    0.08169    0.11437    1.000
    Si4452   Si       0.79065    0.20659    0.10285    1.000
    N4453    N        0.82695    0.18831    0.08626    1.000
    N4454    N        0.76791    0.21028    0.06719    1.000
    Si4455   Si       0.83457    0.14782    0.10379    1.000
    Si4456   Si       0.83960    0.21630    0.05280    1.000
    N4457    N        0.96860    0.13366    0.09583    1.000
    N4458    N        0.92181    0.21384    0.11138    1.000
    N4459    N        0.88018    0.14469    0.10129    1.000
    N4460    N        0.87518    0.23509    0.06737    1.000
    Si4461   Si       0.90226    0.14241    0.06161    1.000
    N4462    N        0.98832    0.19976    0.08215    1.000
    Si4463   Si       0.89037    0.24483    0.10722    1.000
    Si4464   Si       0.94509    0.20380    0.07789    1.000
    Si4465   Si       0.78633    0.08725    0.12613    1.000
    N4466    N        0.75390    0.04596    0.16205    1.000
    N4467    N        0.74868    0.11166    0.13818    1.000
    N4468    N        0.80546    0.08510    0.16493    1.000
    N4469    N        0.81532    0.01364    0.15377    1.000
    Si4470   Si       0.90420    0.01389    0.14542    1.000
    N4471    N        0.96823    0.10147    0.15681    1.000
    Si4472   Si       0.92664    0.08382    0.15631    1.000
    N4473    N        0.87165    0.03036    0.11952    1.000
    N4474    N        0.89826    0.11373    0.17089    1.000
    N4475    N        0.91214    0.04717    0.17416    1.000
    N4476    N        0.83828    0.14165    0.14679    1.000
    N4477    N        0.77034    0.18217    0.13255    1.000
    Si4478   Si       0.82334    0.24635    0.15506    1.000
    N4479    N        0.80113    0.24582    0.11849    1.000
    Si4480   Si       0.88309    0.14460    0.14465    1.000
    Si4481   Si       0.93175    0.20085    0.14944    1.000
    Si4482   Si       0.98185    0.13848    0.13738    1.000
    N4483    N        0.89796    0.17768    0.16842    1.000
    N4484    N        0.96464    0.17273    0.15394    1.000
    N4485    N        0.86583    0.24315    0.14410    1.000
    N4486    N        0.84159    0.11481    0.21493    1.000
    N4487    N        0.79338    0.03036    0.21861    1.000
    Si4488   Si       0.81674    0.12243    0.18016    1.000
    Si4489   Si       0.75582    0.12939    0.21961    1.000
    N4490    N        0.86420    0.02481    0.21905    1.000
    Si4491   Si       0.79462    0.04311    0.17709    1.000
    Si4492   Si       0.88578    0.11898    0.21345    1.000
    Si4493   Si       0.90256    0.04729    0.21542    1.000
    N4494    N        0.97239    0.07277    0.21904    1.000
    Si4495   Si       0.97436    0.03215    0.23080    1.000
    N4496    N        0.98509    0.00793    0.19640    1.000
    N4497    N        0.79765    0.22552    0.18635    1.000
    Si4498   Si       0.78525    0.24580    0.22173    1.000
    N4499    N        0.78424    0.14780    0.19189    1.000
    Si4500   Si       0.77491    0.18947    0.17760    1.000
    Si4501   Si       0.96320    0.23305    0.20818    1.000
    Si4502   Si       0.90324    0.19373    0.20780    1.000
    N4503    N        0.92790    0.22973    0.17979    1.000
    Si4504   Si       0.88953    0.24893    0.17978    1.000
    N4505    N        0.87342    0.22190    0.21448    1.000
    N4506    N        0.82990    0.06618    0.26949    1.000
    Si4507   Si       0.82647    0.10678    0.25539    1.000
    N4508    N        0.78261    0.11625    0.25042    1.000
    Si4509   Si       0.82935    0.03212    0.24399    1.000
    N4510    N        0.84454    0.13295    0.28711    1.000
    Si4511   Si       0.94195    0.08685    0.25005    1.000
    N4512    N        0.95722    0.12764    0.24994    1.000
    N4513    N        0.90169    0.08591    0.23256    1.000
    N4514    N        0.95193    0.06362    0.28579    1.000
    N4515    N        0.93188    0.02240    0.23545    1.000
    N4516    N        0.76044    0.22331    0.24962    1.000
    Si4517   Si       0.76240    0.13993    0.27998    1.000
    Si4518   Si       0.85645    0.23355    0.25326    1.000
    N4519    N        0.85342    0.19974    0.27966    1.000
    Si4520   Si       0.76872    0.21292    0.29209    1.000
    N4521    N        0.73640    0.15951    0.24730    1.000
    N4522    N        0.95964    0.25057    0.28534    1.000
    Si4523   Si       0.93292    0.16306    0.25662    1.000
    N4524    N        0.89485    0.15784    0.23385    1.000
    N4525    N        0.93818    0.20101    0.23425    1.000
    Si4526   Si       0.87394    0.16194    0.27482    1.000
    Si4527   Si       0.96744    0.21357    0.26541    1.000
    N4528    N        0.96670    0.18153    0.29047    1.000
    N4529    N        0.82400    0.02747    0.33035    1.000
    N4530    N        0.80330    0.10089    0.33049    1.000
    Si4531   Si       0.80919    0.06275    0.30876    1.000
    Si4532   Si       0.76011    0.09033    0.33566    1.000
    N4533    N        0.76776    0.05346    0.31072    1.000
    Si4534   Si       0.75631    0.01517    0.32119    1.000
    Si4535   Si       0.83805    0.12743    0.33064    1.000
    Si4536   Si       0.93485    0.03331    0.31327    1.000
    N4537    N        0.90733    0.04721    0.34311    1.000
    N4538    N        0.96528    0.02661    0.34732    1.000
    N4539    N        0.78583    0.17190    0.29629    1.000
    N4540    N        0.83223    0.16815    0.34847    1.000
    Si4541   Si       0.82312    0.18970    0.31131    1.000
    N4542    N        0.80411    0.22909    0.31353    1.000
    Si4543   Si       0.94361    0.24550    0.32690    1.000
    Si4544   Si       0.94007    0.16617    0.32259    1.000
    N4545    N        0.93309    0.20632    0.34382    1.000
    N4546    N        0.91010    0.15399    0.29353    1.000
    N4547    N        0.98316    0.14081    0.33278    1.000
    Si4548   Si       0.75425    0.03908    0.38909    1.000
    N4549    N        0.75125    0.08251    0.37621    1.000
    Si4550   Si       0.82821    0.01732    0.37355    1.000
    N4551    N        0.84815    0.05152    0.39197    1.000
    N4552    N        0.78953    0.01259    0.38904    1.000
    N4553    N        0.86855    0.10928    0.35457    1.000
    N4554    N        0.90961    0.08462    0.39401    1.000
    Si4555   Si       0.93958    0.05325    0.37162    1.000
    N4556    N        0.97454    0.08181    0.37831    1.000
    Si4557   Si       0.87671    0.06848    0.36529    1.000
    Si4558   Si       0.89847    0.12572    0.38103    1.000
    Si4559   Si       0.96863    0.12364    0.36897    1.000
    Si4560   Si       0.82982    0.18087    0.39177    1.000
    Si4561   Si       0.83637    0.24224    0.39196    1.000
    N4562    N        0.80221    0.21654    0.39199    1.000
    N4563    N        0.86487    0.20851    0.40048    1.000
    N4564    N        0.84444    0.26111    0.35447    1.000
    Si4565   Si       0.94828    0.18603    0.37933    1.000
    N4566    N        0.93122    0.14677    0.36275    1.000
    N4567    N        0.83555    0.09715    0.44199    1.000
    Si4568   Si       0.84888    0.05698    0.43406    1.000
    N4569    N        0.82234    0.03161    0.45769    1.000
    N4570    N        0.74177    0.04236    0.42738    1.000
    Si4571   Si       0.92079    0.06213    0.43070    1.000
    N4572    N        0.88629    0.05257    0.45599    1.000
    N4573    N        0.95479    0.08012    0.44980    1.000
    N4574    N        0.93703    0.02930    0.40861    1.000
    Si4575   Si       0.85408    0.13462    0.44379    1.000
    N4576    N        0.76132    0.19745    0.45050    1.000
    Si4577   Si       0.78192    0.15971    0.44431    1.000
    N4578    N        0.82253    0.16342    0.43246    1.000
    Si4579   Si       0.76411    0.22171    0.41443    1.000
    N4580    N        0.76179    0.14099    0.41258    1.000
    Si4581   Si       0.83580    0.25237    0.46672    1.000
    N4582    N        0.97555    0.13720    0.41164    1.000
    Si4583   Si       0.96289    0.16663    0.44324    1.000
    Si4584   Si       0.89243    0.18812    0.42690    1.000
    N4585    N        0.88416    0.14684    0.41526    1.000
    N4586    N        0.93518    0.18995    0.41787    1.000
    N4587    N        0.77778    0.06843    0.49168    1.000
    Si4588   Si       0.81846    0.05296    0.49702    1.000
    N4589    N        0.85512    0.06669    0.51351    1.000
    Si4590   Si       0.75202    0.10397    0.48745    1.000
    Si4591   Si       0.86204    0.10938    0.51867    1.000
    Si4592   Si       0.75238    0.03854    0.46933    1.000
    Si4593   Si       0.95325    0.10294    0.48602    1.000
    Si4594   Si       0.89339    0.05171    0.49921    1.000
    N4595    N        0.92629    0.07902    0.51337    1.000
    N4596    N        0.98487    0.09937    0.51606    1.000
    N4597    N        0.90061    0.01200    0.51324    1.000
    N4598    N        0.77601    0.14045    0.48246    1.000
    N4599    N        0.81179    0.22158    0.48521    1.000
    Si4600   Si       0.76961    0.20548    0.49450    1.000
    N4601    N        0.75099    0.24746    0.50197    1.000
    Si4602   Si       0.82523    0.21605    0.52739    1.000
    N4603    N        0.89413    0.19384    0.46948    1.000
    N4604    N        0.87661    0.13044    0.48396    1.000
    Si4605   Si       0.90631    0.15898    0.49158    1.000
    N4606    N        0.94411    0.14304    0.47572    1.000
    Si4607   Si       0.89622    0.22873    0.49512    1.000
    Si4608   Si       0.98036    0.22959    0.49502    1.000
    N4609    N        0.93781    0.23505    0.50778    1.000
    Si4610   Si       0.77212    0.06392    0.54224    1.000
    N4611    N        0.80506    0.03258    0.53508    1.000
    Si4612   Si       0.82350    0.04612    0.57362    1.000
    N4613    N        0.79192    0.07631    0.57986    1.000
    N4614    N        0.75380    0.10697    0.53322    1.000
    N4615    N        0.82375    0.12681    0.53013    1.000
    N4616    N        0.74353    0.02948    0.55152    1.000
    N4617    N        0.97822    0.04319    0.55963    1.000
    N4618    N        0.87734    0.11684    0.55869    1.000
    Si4619   Si       0.95778    0.07781    0.54512    1.000
    N4620    N        0.94706    0.10615    0.57607    1.000
    Si4621   Si       0.83818    0.13905    0.57100    1.000
    Si4622   Si       0.77585    0.18507    0.57417    1.000
    N4623    N        0.85158    0.18073    0.57448    1.000
    N4624    N        0.74580    0.23863    0.57385    1.000
    N4625    N        0.79112    0.18768    0.53321    1.000
    N4626    N        0.80799    0.25462    0.54117    1.000
    N4627    N        0.79057    0.14400    0.57879    1.000
    Si4628   Si       0.78507    0.14124    0.52737    1.000
    N4629    N        0.86837    0.22112    0.52757    1.000
    Si4630   Si       0.93863    0.14855    0.56343    1.000
    N4631    N        0.91193    0.23570    0.57683    1.000
    N4632    N        0.97888    0.16091    0.55289    1.000
    Si4633   Si       0.89098    0.19708    0.56099    1.000
    N4634    N        0.91305    0.16976    0.53323    1.000
    N4635    N        0.84407    0.11969    0.61029    1.000
    Si4636   Si       0.77483    0.11083    0.60273    1.000
    N4637    N        0.82582    0.00796    0.59636    1.000
    N4638    N        0.86318    0.05538    0.59175    1.000
    Si4639   Si       0.86832    0.01616    0.61046    1.000
    Si4640   Si       0.87971    0.09538    0.59602    1.000
    N4641    N        0.90578    0.10132    0.63012    1.000
    Si4642   Si       0.94846    0.09870    0.61912    1.000
    N4643    N        0.96714    0.06078    0.62802    1.000
    Si4644   Si       0.77696    0.25152    0.60203    1.000
    Si4645   Si       0.83716    0.19480    0.61290    1.000
    N4646    N        0.79716    0.21118    0.60169    1.000
    N4647    N        0.86546    0.22612    0.62785    1.000
    N4648    N        0.92146    0.17193    0.59698    1.000
    Si4649   Si       0.88578    0.25650    0.60449    1.000
    N4650    N        0.96598    0.13537    0.63761    1.000
    Si4651   Si       0.93240    0.16163    0.63852    1.000
    Si4652   Si       0.94201    0.21265    0.60286    1.000
    N4653    N        0.98066    0.22089    0.58854    1.000
    Si4654   Si       0.76672    0.09063    0.67643    1.000
    N4655    N        0.85191    0.11015    0.68213    1.000
    Si4656   Si       0.83156    0.02397    0.68430    1.000
    N4657    N        0.79637    0.02202    0.66257    1.000
    Si4658   Si       0.75216    0.01891    0.65774    1.000
    N4659    N        0.74488    0.12374    0.69542    1.000
    Si4660   Si       0.82732    0.12878    0.64858    1.000
    N4661    N        0.86387    0.01684    0.65500    1.000
    N4662    N        0.78769    0.11013    0.64444    1.000
    Si4663   Si       0.89604    0.10950    0.67148    1.000
    Si4664   Si       0.96495    0.03147    0.65960    1.000
    N4665    N        0.93048    0.09042    0.69049    1.000
    N4666    N        0.97721    0.04120    0.69931    1.000
    Si4667   Si       0.97238    0.08533    0.70062    1.000
    N4668    N        0.80955    0.22297    0.68548    1.000
    Si4669   Si       0.84830    0.21074    0.66807    1.000
    N4670    N        0.83566    0.17256    0.64860    1.000
    N4671    N        0.90470    0.15368    0.67052    1.000
    N4672    N        0.98953    0.23996    0.69555    1.000
    N4673    N        0.94642    0.20261    0.64515    1.000
    Si4674   Si       0.96978    0.20169    0.68212    1.000
    N4675    N        0.87753    0.21442    0.69960    1.000
    N4676    N        0.84708    0.04975    0.71443    1.000
    Si4677   Si       0.77567    0.05702    0.74187    1.000
    Si4678   Si       0.83576    0.09143    0.71791    1.000
    N4679    N        0.79227    0.08270    0.71198    1.000
    N4680    N        0.84104    0.11190    0.75850    1.000
    N4681    N        0.77312    0.01429    0.73097    1.000
    Si4682   Si       0.87816    0.03513    0.74287    1.000
    N4683    N        0.97420    0.09309    0.74303    1.000
    N4684    N        0.89856    0.07087    0.75785    1.000
    Si4685   Si       0.98577    0.02345    0.73806    1.000
    Si4686   Si       0.76575    0.14934    0.72588    1.000
    Si4687   Si       0.84008    0.15437    0.74775    1.000
    Si4688   Si       0.79378    0.20179    0.71867    1.000
    N4689    N        0.80825    0.16130    0.72216    1.000
    N4690    N        0.75058    0.18972    0.71687    1.000
    N4691    N        0.79449    0.22472    0.75641    1.000
    N4692    N        0.91617    0.23570    0.75667    1.000
    Si4693   Si       0.88424    0.24892    0.72831    1.000
    N4694    N        0.88215    0.16156    0.74095    1.000
    N4695    N        0.94291    0.18980    0.71458    1.000
    Si4696   Si       0.94657    0.20404    0.75572    1.000
    Si4697   Si       0.90072    0.17902    0.70752    1.000
    N4698    N        0.79706    0.05782    0.77982    1.000
    Si4699   Si       0.82053    0.09119    0.79277    1.000
    Si4700   Si       0.78008    0.03541    0.81264    1.000
    N4701    N        0.85826    0.07861    0.81078    1.000
    N4702    N        0.86154    0.01740    0.77880    1.000
    N4703    N        0.79626    0.11576    0.81898    1.000
    N4704    N        0.93307    0.10350    0.79852    1.000
    Si4705   Si       0.88392    0.10312    0.78580    1.000
    N4706    N        0.96067    0.03766    0.77224    1.000
    Si4707   Si       0.94373    0.01371    0.80440    1.000
    Si4708   Si       0.94165    0.07565    0.76434    1.000
    Si4709   Si       0.86931    0.03650    0.81648    1.000
    N4710    N        0.75587    0.13857    0.76535    1.000
    N4711    N        0.77289    0.18228    0.81469    1.000
    Si4712   Si       0.80627    0.20526    0.79511    1.000
    N4713    N        0.83808    0.18037    0.78011    1.000
    Si4714   Si       0.76365    0.14084    0.80736    1.000
    N4715    N        0.93160    0.17432    0.78514    1.000
    Si4716   Si       0.95256    0.14319    0.80618    1.000
    N4717    N        0.88494    0.21599    0.81348    1.000
    Si4718   Si       0.88565    0.17762    0.78814    1.000
    Si4719   Si       0.90853    0.25149    0.79741    1.000
    N4720    N        0.87903    0.13995    0.81000    1.000
    N4721    N        0.94144    0.25934    0.82246    1.000
    Si4722   Si       0.80124    0.09615    0.85763    1.000
    N4723    N        0.80021    0.05354    0.84642    1.000
    Si4724   Si       0.81829    0.01996    0.87089    1.000
    N4725    N        0.83941    0.10849    0.87485    1.000
    N4726    N        0.86051    0.01850    0.85761    1.000
    Si4727   Si       0.87217    0.12403    0.84990    1.000
    N4728    N        0.90722    0.09991    0.86261    1.000
    N4729    N        0.97337    0.07722    0.84462    1.000
    Si4730   Si       0.93193    0.07744    0.83518    1.000
    Si4731   Si       0.97718    0.03835    0.86424    1.000
    Si4732   Si       0.90593    0.01759    0.86743    1.000
    N4733    N        0.91267    0.03930    0.82414    1.000
    Si4734   Si       0.74776    0.21045    0.83897    1.000
    Si4735   Si       0.85587    0.22735    0.84385    1.000
    N4736    N        0.83894    0.19998    0.87510    1.000
    N4737    N        0.75157    0.24820    0.81845    1.000
    N4738    N        0.81937    0.23724    0.82040    1.000
    N4739    N        0.95814    0.14584    0.84897    1.000
    Si4740   Si       0.96742    0.23987    0.85143    1.000
    N4741    N        0.87852    0.25526    0.86966    1.000
    N4742    N        0.89198    0.15797    0.87745    1.000
    N4743    N        0.79740    0.02650    0.91037    1.000
    Si4744   Si       0.84548    0.11344    0.91774    1.000
    Si4745   Si       0.77240    0.10467    0.92734    1.000
    N4746    N        0.76828    0.10456    0.88370    1.000
    N4747    N        0.81208    0.09110    0.93619    1.000
    N4748    N        0.74193    0.07769    0.94073    1.000
    N4749    N        0.93912    0.03732    0.88510    1.000
    Si4750   Si       0.93833    0.01401    0.92277    1.000
    N4751    N        0.80494    0.25824    0.88792    1.000
    Si4752   Si       0.80290    0.21732    0.89263    1.000
    Si4753   Si       0.75433    0.18214    0.91575    1.000
    N4754    N        0.84248    0.15588    0.92567    1.000
    N4755    N        0.77338    0.14753    0.93711    1.000
    N4756    N        0.76553    0.20186    0.87837    1.000
    N4757    N        0.88883    0.21233    0.92704    1.000
    N4758    N        0.93978    0.13414    0.92101    1.000
    N4759    N        0.94410    0.22844    0.88826    1.000
    Si4760   Si       0.86713    0.18341    0.90331    1.000
    Si4761   Si       0.92710    0.13411    0.87960    1.000
    Si4762   Si       0.97453    0.21864    0.91821    1.000
    Si4763   Si       0.90767    0.24430    0.90375    1.000
    Si4764   Si       0.97391    0.15874    0.93522    1.000
    N4765    N        0.78327    0.03826    0.97962    1.000
    N4766    N        0.85298    0.03358    0.95527    1.000
    Si4767   Si       0.75188    0.06985    0.98186    1.000
    Si4768   Si       0.81219    0.04589    0.94750    1.000
    N4769    N        0.75792    0.11124    0.99067    1.000
    N4770    N        0.91944    0.04437    0.95097    1.000
    Si4771   Si       0.95910    0.05223    0.97036    1.000
    Si4772   Si       0.88197    0.06242    0.96456    1.000
    N4773    N        0.94679    0.09802    0.97813    1.000
    Si4774   Si       0.91765    0.12079    0.95791    1.000
    N4775    N        0.97421    0.01386    0.94721    1.000
    N4776    N        0.88079    0.10342    0.94271    1.000
    N4777    N        0.79547    0.20700    0.93660    1.000
    N4778    N        0.82212    0.15297    0.98875    1.000
    Si4779   Si       0.80902    0.16707    0.94976    1.000
    Si4780   Si       0.77958    0.24030    0.96268    1.000
    N4781    N        0.91564    0.23001    0.99184    1.000
    N4782    N        0.95353    0.19549    0.94826    1.000
    N4783    N        0.90147    0.15890    0.97359    1.000
    Si4784   Si       0.91336    0.19904    0.96176    1.000
    Si4785   Si       0.79054    0.34852    0.00873    1.000
    N4786    N        0.76800    0.35758    0.04462    1.000
    N4787    N        0.82385    0.32324    0.01190    1.000
    Si4788   Si       0.83127    0.27875    0.00757    1.000
    Si4789   Si       0.86771    0.32709    0.01836    1.000
    N4790    N        0.90381    0.35018    0.00683    1.000
    Si4791   Si       0.93044    0.36311    0.04049    1.000
    N4792    N        0.97543    0.35157    0.02706    1.000
    Si4793   Si       0.96076    0.26491    0.02285    1.000
    N4794    N        0.97580    0.29141    0.05397    1.000
    N4795    N        0.87298    0.28725    0.99960    1.000
    Si4796   Si       0.80355    0.43067    0.00369    1.000
    Si4797   Si       0.76257    0.48460    0.04359    1.000
    N4798    N        0.76992    0.44497    0.02635    1.000
    N4799    N        0.84038    0.44770    0.01619    1.000
    N4800    N        0.85565    0.50579    0.05621    1.000
    Si4801   Si       0.92160    0.44376    0.03616    1.000
    Si4802   Si       0.98234    0.39513    0.02240    1.000
    N4803    N        0.97027    0.50627    0.00604    1.000
    Si4804   Si       0.98424    0.48930    0.04300    1.000
    N4805    N        0.90405    0.47703    0.00899    1.000
    N4806    N        0.93933    0.40456    0.02992    1.000
    N4807    N        0.79639    0.31466    0.09262    1.000
    Si4808   Si       0.77443    0.35298    0.08779    1.000
    Si4809   Si       0.83411    0.33598    0.09020    1.000
    Si4810   Si       0.77612    0.28013    0.10598    1.000
    N4811    N        0.81239    0.37252    0.09586    1.000
    N4812    N        0.75170    0.27045    0.07003    1.000
    N4813    N        0.73946    0.36870    0.11007    1.000
    N4814    N        0.86672    0.32780    0.06217    1.000
    N4815    N        0.91405    0.28260    0.09987    1.000
    N4816    N        0.92537    0.35213    0.08138    1.000
    Si4817   Si       0.89578    0.32152    0.09338    1.000
    Si4818   Si       0.95116    0.27086    0.08358    1.000
    N4819    N        0.97873    0.25978    0.11211    1.000
    Si4820   Si       0.85050    0.46118    0.05623    1.000
    N4821    N        0.76089    0.48723    0.08846    1.000
    N4822    N        0.82776    0.44709    0.08864    1.000
    Si4823   Si       0.82755    0.40817    0.11287    1.000
    N4824    N        0.88781    0.44227    0.06334    1.000
    Si4825   Si       0.89342    0.43230    0.10487    1.000
    Si4826   Si       0.95782    0.45767    0.10000    1.000
    N4827    N        0.95245    0.46371    0.05768    1.000
    N4828    N        0.75657    0.29306    0.14274    1.000
    N4829    N        0.82424    0.28927    0.16763    1.000
    Si4830   Si       0.86139    0.31184    0.16308    1.000
    N4831    N        0.86275    0.32517    0.12238    1.000
    N4832    N        0.97581    0.36881    0.12969    1.000
    N4833    N        0.91808    0.36376    0.14934    1.000
    N4834    N        0.96381    0.30909    0.16376    1.000
    Si4835   Si       0.93806    0.37734    0.11358    1.000
    N4836    N        0.81576    0.50413    0.13669    1.000
    N4837    N        0.75329    0.47039    0.15838    1.000
    N4838    N        0.81349    0.43024    0.14847    1.000
    Si4839   Si       0.83391    0.46629    0.13058    1.000
    N4840    N        0.87848    0.46424    0.12909    1.000
    Si4841   Si       0.87854    0.37991    0.15594    1.000
    N4842    N        0.86842    0.39826    0.11811    1.000
    N4843    N        0.93886    0.49205    0.11852    1.000
    Si4844   Si       0.90341    0.49615    0.14227    1.000
    N4845    N        0.93403    0.42010    0.10901    1.000
    Si4846   Si       0.75729    0.37030    0.20230    1.000
    N4847    N        0.76505    0.28066    0.20807    1.000
    Si4848   Si       0.82777    0.35566    0.21044    1.000
    N4849    N        0.79120    0.34692    0.18905    1.000
    N4850    N        0.85949    0.35104    0.18216    1.000
    Si4851   Si       0.78407    0.30586    0.17587    1.000
    Si4852   Si       0.93550    0.29960    0.19511    1.000
    N4853    N        0.93892    0.33973    0.20905    1.000
    N4854    N        0.94843    0.27118    0.22428    1.000
    N4855    N        0.89500    0.29180    0.18290    1.000
    Si4856   Si       0.95825    0.35490    0.17056    1.000
    Si4857   Si       0.81223    0.48531    0.21380    1.000
    N4858    N        0.79564    0.44593    0.21364    1.000
    N4859    N        0.84896    0.48698    0.18693    1.000
    Si4860   Si       0.77810    0.43643    0.17461    1.000
    N4861    N        0.75116    0.40341    0.17430    1.000
    N4862    N        0.98028    0.38575    0.19391    1.000
    N4863    N        0.97550    0.50799    0.20119    1.000
    N4864    N        0.91299    0.48813    0.18254    1.000
    N4865    N        0.88133    0.41541    0.18101    1.000
    Si4866   Si       0.88433    0.45947    0.19480    1.000
    Si4867   Si       0.83633    0.29405    0.26454    1.000
    N4868    N        0.83339    0.33071    0.24491    1.000
    Si4869   Si       0.85610    0.36279    0.27082    1.000
    Si4870   Si       0.75079    0.37369    0.27984    1.000
    N4871    N        0.81982    0.25817    0.24246    1.000
    N4872    N        0.87531    0.27213    0.26669    1.000
    Si4873   Si       0.96302    0.28661    0.26204    1.000
    Si4874   Si       0.93105    0.35261    0.24792    1.000
    N4875    N        0.93377    0.31574    0.27222    1.000
    N4876    N        0.89298    0.37246    0.24754    1.000
    N4877    N        0.96456    0.37583    0.26123    1.000
    N4878    N        0.76942    0.38532    0.24311    1.000
    N4879    N        0.81480    0.43774    0.28325    1.000
    Si4880   Si       0.80178    0.41663    0.24623    1.000
    N4881    N        0.83153    0.49862    0.25046    1.000
    Si4882   Si       0.83377    0.47492    0.28613    1.000
    N4883    N        0.83522    0.39168    0.23432    1.000
    Si4884   Si       0.98418    0.40400    0.23222    1.000
    N4885    N        0.89565    0.44267    0.23506    1.000
    N4886    N        0.92460    0.50030    0.24770    1.000
    N4887    N        0.97023    0.44612    0.23753    1.000
    Si4888   Si       0.93271    0.45856    0.25443    1.000
    Si4889   Si       0.87689    0.40535    0.22336    1.000
    Si4890   Si       0.83954    0.33659    0.32426    1.000
    N4891    N        0.81970    0.29911    0.30505    1.000
    Si4892   Si       0.76688    0.32113    0.33446    1.000
    Si4893   Si       0.80915    0.26630    0.33134    1.000
    N4894    N        0.83339    0.37834    0.30467    1.000
    N4895    N        0.76765    0.27940    0.34304    1.000
    N4896    N        0.74997    0.33098    0.29493    1.000
    N4897    N        0.80021    0.34109    0.34962    1.000
    N4898    N        0.91043    0.27255    0.32664    1.000
    Si4899   Si       0.97646    0.36445    0.30143    1.000
    N4900    N        0.94408    0.37636    0.32786    1.000
    N4901    N        0.87315    0.33051    0.29626    1.000
    Si4902   Si       0.89891    0.29717    0.29176    1.000
    Si4903   Si       0.80647    0.41223    0.31743    1.000
    N4904    N        0.76380    0.39951    0.31249    1.000
    Si4905   Si       0.76668    0.49410    0.31760    1.000
    N4906    N        0.75129    0.46222    0.34401    1.000
    N4907    N        0.82464    0.43055    0.35183    1.000
    N4908    N        0.80687    0.50207    0.30639    1.000
    N4909    N        0.97533    0.49980    0.33891    1.000
    Si4910   Si       0.90065    0.46758    0.32778    1.000
    N4911    N        0.89365    0.42536    0.34223    1.000
    Si4912   Si       0.93467    0.41836    0.32893    1.000
    N4913    N        0.87320    0.48446    0.29981    1.000
    N4914    N        0.93639    0.45344    0.30053    1.000
    Si4915   Si       0.97884    0.46212    0.32032    1.000
    Si4916   Si       0.80484    0.35708    0.38884    1.000
    N4917    N        0.84301    0.37745    0.38894    1.000
    N4918    N        0.86569    0.32142    0.35946    1.000
    Si4919   Si       0.87228    0.34726    0.39534    1.000
    Si4920   Si       0.94142    0.36202    0.36907    1.000
    N4921    N        0.94958    0.31913    0.37720    1.000
    Si4922   Si       0.88148    0.28165    0.35790    1.000
    N4923    N        0.89992    0.27567    0.39597    1.000
    N4924    N        0.90727    0.37202    0.39219    1.000
    N4925    N        0.97569    0.37825    0.39040    1.000
    Si4926   Si       0.98121    0.30618    0.34931    1.000
    N4927    N        0.97712    0.26225    0.34776    1.000
    N4928    N        0.77239    0.38669    0.39062    1.000
    Si4929   Si       0.82841    0.46326    0.38130    1.000
    N4930    N        0.78948    0.46275    0.39996    1.000
    Si4931   Si       0.75872    0.48486    0.38007    1.000
    N4932    N        0.86397    0.44307    0.40090    1.000
    Si4933   Si       0.86198    0.41194    0.36826    1.000
    N4934    N        0.83783    0.50316    0.37165    1.000
    N4935    N        0.91477    0.48407    0.36517    1.000
    N4936    N        0.97063    0.43371    0.35156    1.000
    Si4937   Si       0.95055    0.50531    0.37456    1.000
    Si4938   Si       0.90159    0.46969    0.40622    1.000
    Si4939   Si       0.79657    0.28917    0.43655    1.000
    N4940    N        0.83384    0.26626    0.42541    1.000
    N4941    N        0.76303    0.26178    0.43669    1.000
    N4942    N        0.79673    0.32550    0.41629    1.000
    Si4943   Si       0.94208    0.28993    0.40714    1.000
    N4944    N        0.86941    0.32670    0.43265    1.000
    N4945    N        0.92691    0.29932    0.44833    1.000
    Si4946   Si       0.88515    0.28511    0.43495    1.000
    N4947    N        0.97803    0.26474    0.41452    1.000
    N4948    N        0.93549    0.37564    0.45892    1.000
    N4949    N        0.80976    0.41639    0.44289    1.000
    Si4950   Si       0.85139    0.42876    0.43999    1.000
    Si4951   Si       0.77819    0.42272    0.41348    1.000
    N4952    N        0.73620    0.42893    0.42480    1.000
    Si4953   Si       0.95950    0.45949    0.43851    1.000
    N4954    N        0.95298    0.49694    0.41693    1.000
    N4955    N        0.87658    0.39528    0.45437    1.000
    Si4956   Si       0.91351    0.39675    0.42743    1.000
    N4957    N        0.92750    0.43650    0.41989    1.000
    N4958    N        0.87967    0.50207    0.42940    1.000
    N4959    N        0.82115    0.35795    0.48087    1.000
    Si4960   Si       0.78679    0.27139    0.50747    1.000
    N4961    N        0.80999    0.28602    0.47734    1.000
    Si4962   Si       0.80041    0.33677    0.51274    1.000
    N4963    N        0.76683    0.30960    0.51373    1.000
    Si4964   Si       0.74464    0.38344    0.51669    1.000
    Si4965   Si       0.85957    0.35391    0.46597    1.000
    Si4966   Si       0.96582    0.36665    0.48986    1.000
    N4967    N        0.96012    0.32696    0.50586    1.000
    N4968    N        0.88996    0.34627    0.49721    1.000
    Si4969   Si       0.92152    0.31326    0.48939    1.000
    Si4970   Si       0.98798    0.29782    0.51988    1.000
    N4971    N        0.87766    0.25735    0.46768    1.000
    N4972    N        0.75707    0.38475    0.47513    1.000
    Si4973   Si       0.85032    0.44334    0.51418    1.000
    Si4974   Si       0.79926    0.39632    0.48125    1.000
    N4975    N        0.81129    0.42182    0.51260    1.000
    Si4976   Si       0.74651    0.49954    0.48877    1.000
    N4977    N        0.77355    0.48736    0.52133    1.000
    N4978    N        0.85947    0.45792    0.47379    1.000
    Si4979   Si       0.81326    0.50678    0.52225    1.000
    Si4980   Si       0.90377    0.38945    0.49231    1.000
    N4981    N        0.94153    0.39470    0.51446    1.000
    Si4982   Si       0.94731    0.49596    0.50661    1.000
    Si4983   Si       0.87016    0.49928    0.47299    1.000
    N4984    N        0.95608    0.45892    0.48140    1.000
    Si4985   Si       0.95964    0.43467    0.51716    1.000
    N4986    N        0.87719    0.41067    0.52458    1.000
    Si4987   Si       0.82327    0.28862    0.56373    1.000
    N4988    N        0.83402    0.32032    0.53406    1.000
    N4989    N        0.78161    0.37015    0.53427    1.000
    Si4990   Si       0.87739    0.32246    0.53614    1.000
    N4991    N        0.96930    0.27661    0.55375    1.000
    N4992    N        0.88705    0.34959    0.56829    1.000
    N4993    N        0.90651    0.29011    0.52507    1.000
    Si4994   Si       0.93147    0.25822    0.54456    1.000
    N4995    N        0.86375    0.28539    0.57890    1.000
    N4996    N        0.83525    0.39605    0.57743    1.000
    N4997    N        0.77825    0.43115    0.57173    1.000
    Si4998   Si       0.75417    0.45630    0.54748    1.000
    Si4999   Si       0.80253    0.40322    0.55051    1.000
    N5000    N        0.84397    0.47908    0.54073    1.000
    Si5001   Si       0.86352    0.50012    0.57319    1.000
    N5002    N        0.93753    0.46371    0.53945    1.000
    Si5003   Si       0.92390    0.45663    0.58078    1.000
    Si5004   Si       0.87762    0.39207    0.56599    1.000
    N5005    N        0.84161    0.33960    0.61978    1.000
    N5006    N        0.79735    0.29113    0.59708    1.000
    Si5007   Si       0.81138    0.31162    0.63311    1.000
    Si5008   Si       0.83118    0.38065    0.61980    1.000
    N5009    N        0.95686    0.33841    0.61358    1.000
    N5010    N        0.90339    0.29197    0.62367    1.000
    N5011    N        0.98104    0.27752    0.62740    1.000
    Si5012   Si       0.87832    0.32117    0.60101    1.000
    Si5013   Si       0.94531    0.30229    0.63296    1.000
    N5014    N        0.78918    0.38921    0.62719    1.000
    N5015    N        0.77920    0.46353    0.63777    1.000
    Si5016   Si       0.77284    0.42679    0.61391    1.000
    N5017    N        0.84457    0.46015    0.64146    1.000
    Si5018   Si       0.83932    0.50548    0.64148    1.000
    N5019    N        0.86364    0.39650    0.64266    1.000
    N5020    N        0.89584    0.48245    0.59742    1.000
    Si5021   Si       0.90588    0.49294    0.63918    1.000
    Si5022   Si       0.87882    0.43584    0.62553    1.000
    N5023    N        0.90122    0.41982    0.58855    1.000
    N5024    N        0.96090    0.45705    0.60073    1.000
    N5025    N        0.83648    0.28513    0.65841    1.000
    N5026    N        0.78288    0.33025    0.66093    1.000
    Si5027   Si       0.75795    0.36646    0.64806    1.000
    Si5028   Si       0.80055    0.26334    0.67447    1.000
    N5029    N        0.76759    0.25774    0.64351    1.000
    N5030    N        0.95318    0.30207    0.67676    1.000
    N5031    N        0.89176    0.33396    0.67071    1.000
    Si5032   Si       0.87869    0.37374    0.67488    1.000
    Si5033   Si       0.87824    0.29421    0.66328    1.000
    Si5034   Si       0.98731    0.27639    0.67012    1.000
    N5035    N        0.89700    0.28084    0.70084    1.000
    Si5036   Si       0.92086    0.31685    0.70045    1.000
    N5037    N        0.74657    0.38268    0.68821    1.000
    Si5038   Si       0.80807    0.46123    0.66940    1.000
    N5039    N        0.80035    0.43090    0.69706    1.000
    N5040    N        0.81276    0.50446    0.67924    1.000
    Si5041   Si       0.90767    0.43889    0.69423    1.000
    Si5042   Si       0.95602    0.46097    0.64668    1.000
    N5043    N        0.98202    0.43325    0.66598    1.000
    N5044    N        0.94566    0.50347    0.65117    1.000
    N5045    N        0.91140    0.45101    0.65274    1.000
    N5046    N        0.91172    0.39465    0.69358    1.000
    Si5047   Si       0.82916    0.36128    0.74096    1.000
    N5048    N        0.78703    0.34972    0.73403    1.000
    N5049    N        0.79105    0.28375    0.71158    1.000
    Si5050   Si       0.80736    0.26429    0.74689    1.000
    N5051    N        0.84924    0.26572    0.74834    1.000
    Si5052   Si       0.77675    0.32339    0.70153    1.000
    N5053    N        0.84692    0.37452    0.70351    1.000
    N5054    N        0.91977    0.34068    0.73546    1.000
    N5055    N        0.82312    0.40279    0.75383    1.000
    N5056    N        0.82863    0.50130    0.74797    1.000
    Si5057   Si       0.83815    0.41636    0.71451    1.000
    N5058    N        0.74581    0.41431    0.74506    1.000
    Si5059   Si       0.75802    0.42251    0.70322    1.000
    N5060    N        0.86824    0.44649    0.71301    1.000
    Si5061   Si       0.92645    0.38343    0.73335    1.000
    N5062    N        0.96986    0.38459    0.73377    1.000
    Si5063   Si       0.98277    0.42141    0.71029    1.000
    Si5064   Si       0.96529    0.46824    0.74894    1.000
    N5065    N        0.94400    0.44453    0.71963    1.000
    Si5066   Si       0.86826    0.48040    0.74267    1.000
    N5067    N        0.80300    0.29205    0.78366    1.000
    Si5068   Si       0.85028    0.29970    0.78379    1.000
    N5069    N        0.85471    0.34207    0.76885    1.000
    N5070    N        0.78058    0.38159    0.80057    1.000
    Si5071   Si       0.79217    0.27034    0.82013    1.000
    Si5072   Si       0.76329    0.37609    0.76248    1.000
    N5073    N        0.90954    0.34773    0.81004    1.000
    N5074    N        0.89380    0.29000    0.78674    1.000
    Si5075   Si       0.92011    0.32318    0.77495    1.000
    Si5076   Si       0.97031    0.29058    0.80794    1.000
    Si5077   Si       0.87648    0.37242    0.79178    1.000
    N5078    N        0.96339    0.31451    0.77162    1.000
    Si5079   Si       0.81106    0.49040    0.78900    1.000
    N5080    N        0.79416    0.44954    0.79600    1.000
    Si5081   Si       0.81250    0.41104    0.79499    1.000
    N5082    N        0.84687    0.39638    0.81564    1.000
    N5083    N        0.90610    0.39882    0.76957    1.000
    Si5084   Si       0.98525    0.46040    0.81914    1.000
    Si5085   Si       0.91456    0.43788    0.78874    1.000
    N5086    N        0.88593    0.47083    0.78111    1.000
    N5087    N        0.95315    0.45564    0.78822    1.000
    N5088    N        0.78405    0.30281    0.84961    1.000
    N5089    N        0.80578    0.36704    0.86287    1.000
    Si5090   Si       0.81972    0.32471    0.85939    1.000
    N5091    N        0.84653    0.30622    0.82977    1.000
    Si5092   Si       0.76985    0.37870    0.84214    1.000
    Si5093   Si       0.74207    0.31239    0.85015    1.000
    Si5094   Si       0.87631    0.29900    0.86318    1.000
    Si5095   Si       0.93292    0.34365    0.84590    1.000
    N5096    N        0.97347    0.32515    0.83850    1.000
    N5097    N        0.91562    0.31555    0.87345    1.000
    N5098    N        0.93927    0.38234    0.86280    1.000
    N5099    N        0.82429    0.43655    0.87031    1.000
    Si5100   Si       0.83695    0.39830    0.85656    1.000
    N5101    N        0.77062    0.48641    0.85080    1.000
    N5102    N        0.75938    0.41791    0.85430    1.000
    Si5103   Si       0.81387    0.48087    0.86650    1.000
    Si5104   Si       0.76162    0.44940    0.82477    1.000
    N5105    N        0.83814    0.48748    0.82554    1.000
    N5106    N        0.90509    0.49972    0.84614    1.000
    Si5107   Si       0.97398    0.40513    0.87441    1.000
    Si5108   Si       0.87926    0.47505    0.82287    1.000
    N5109    N        0.96865    0.44470    0.85624    1.000
    Si5110   Si       0.90444    0.40891    0.86580    1.000
    N5111    N        0.90086    0.43789    0.83186    1.000
    Si5112   Si       0.92936    0.46776    0.86754    1.000
    N5113    N        0.78225    0.32018    0.91497    1.000
    Si5114   Si       0.79096    0.36055    0.90300    1.000
    Si5115   Si       0.77314    0.28213    0.89434    1.000
    N5116    N        0.84925    0.32079    0.89032    1.000
    N5117    N        0.82686    0.37342    0.92994    1.000
    Si5118   Si       0.86295    0.35754    0.91159    1.000
    N5119    N        0.75515    0.26928    0.93663    1.000
    Si5120   Si       0.98582    0.35771    0.93282    1.000
    Si5121   Si       0.92671    0.31670    0.91494    1.000
    N5122    N        0.96998    0.32257    0.91700    1.000
    N5123    N        0.91414    0.27520    0.93360    1.000
    N5124    N        0.89882    0.34580    0.93307    1.000
    Si5125   Si       0.84967    0.49720    0.93273    1.000
    N5126    N        0.76664    0.39314    0.92017    1.000
    N5127    N        0.74805    0.45893    0.90889    1.000
    N5128    N        0.81223    0.48746    0.91145    1.000
    Si5129   Si       0.78053    0.47066    0.93541    1.000
    Si5130   Si       0.74064    0.41804    0.89539    1.000
    N5131    N        0.95179    0.49785    0.89228    1.000
    N5132    N        0.97463    0.39853    0.91720    1.000
    N5133    N        0.91332    0.43870    0.89615    1.000
    N5134    N        0.87065    0.38666    0.88003    1.000
    N5135    N        0.76456    0.32659    0.98240    1.000
    N5136    N        0.81050    0.27011    0.97148    1.000
    Si5137   Si       0.78353    0.30019    0.95353    1.000
    N5138    N        0.95551    0.36022    0.96737    1.000
    Si5139   Si       0.90862    0.27168    0.97751    1.000
    Si5140   Si       0.91288    0.36701    0.96865    1.000
    N5141    N        0.94601    0.29028    0.99318    1.000
    Si5142   Si       0.97017    0.32677    0.99168    1.000
    N5143    N        0.76502    0.50179    0.96290    1.000
    N5144    N        0.79774    0.44159    0.96026    1.000
    Si5145   Si       0.79763    0.39776    0.95143    1.000
    N5146    N        0.83766    0.50615    0.97662    1.000
    N5147    N        0.79806    0.38888    0.99361    1.000
    Si5148   Si       0.90989    0.43900    0.93917    1.000
    Si5149   Si       0.98399    0.42332    0.95293    1.000
    N5150    N        0.89825    0.40737    0.96406    1.000
    N5151    N        0.95105    0.45124    0.95071    1.000
    Si5152   Si       0.86494    0.47008    0.98882    1.000
    N5153    N        0.87383    0.46431    0.94709    1.000
    Si5154   Si       0.95633    0.49217    0.93609    1.000
    N5155    N        0.84441    0.56244    0.02875    1.000
    Si5156   Si       0.81926    0.53288    0.05132    1.000
    N5157    N        0.78965    0.51446    0.02873    1.000
    N5158    N        0.91701    0.54769    0.01980    1.000
    N5159    N        0.95565    0.61899    0.02927    1.000
    Si5160   Si       0.88189    0.54129    0.04563    1.000
    N5161    N        0.87792    0.62249    0.03589    1.000
    Si5162   Si       0.93909    0.58396    0.00790    1.000
    Si5163   Si       0.92825    0.51174    0.99840    1.000
    Si5164   Si       0.80591    0.69633    0.01316    1.000
    N5165    N        0.84647    0.70548    0.02354    1.000
    N5166    N        0.77726    0.73077    0.01806    1.000
    N5167    N        0.79832    0.65824    0.02913    1.000
    Si5168   Si       0.95140    0.69890    0.03826    1.000
    N5169    N        0.95197    0.74360    0.03573    1.000
    Si5170   Si       0.88693    0.70629    0.00940    1.000
    N5171    N        0.90847    0.68871    0.04312    1.000
    N5172    N        0.79923    0.54884    0.08623    1.000
    Si5173   Si       0.78323    0.59038    0.09437    1.000
    N5174    N        0.81528    0.61133    0.07439    1.000
    Si5175   Si       0.78345    0.51784    0.11251    1.000
    Si5176   Si       0.85195    0.59791    0.05709    1.000
    N5177    N        0.73933    0.58534    0.08849    1.000
    N5178    N        0.87775    0.57072    0.07986    1.000
    N5179    N        0.98585    0.61490    0.09921    1.000
    N5180    N        0.98275    0.52556    0.06916    1.000
    Si5181   Si       0.96122    0.52789    0.10753    1.000
    N5182    N        0.76999    0.65143    0.09594    1.000
    Si5183   Si       0.76914    0.72027    0.08687    1.000
    N5184    N        0.80760    0.70126    0.07711    1.000
    N5185    N        0.85473    0.65987    0.08389    1.000
    Si5186   Si       0.80951    0.65724    0.07307    1.000
    Si5187   Si       0.84086    0.72661    0.06035    1.000
    Si5188   Si       0.96250    0.63577    0.06881    1.000
    Si5189   Si       0.89219    0.65307    0.06237    1.000
    N5190    N        0.97767    0.67700    0.06526    1.000
    N5191    N        0.86683    0.72670    0.09648    1.000
    N5192    N        0.92118    0.63544    0.08922    1.000
    N5193    N        0.77264    0.59399    0.13956    1.000
    N5194    N        0.75150    0.53437    0.13759    1.000
    Si5195   Si       0.84633    0.52496    0.16472    1.000
    Si5196   Si       0.78328    0.61352    0.17563    1.000
    N5197    N        0.98320    0.57611    0.17003    1.000
    N5198    N        0.88333    0.60162    0.14534    1.000
    N5199    N        0.87972    0.53238    0.13997    1.000
    Si5200   Si       0.96622    0.59430    0.13336    1.000
    Si5201   Si       0.89538    0.56770    0.11870    1.000
    N5202    N        0.94420    0.62674    0.15094    1.000
    N5203    N        0.93902    0.56284    0.11887    1.000
    N5204    N        0.75930    0.71006    0.12906    1.000
    Si5205   Si       0.77842    0.67142    0.13479    1.000
    N5206    N        0.82042    0.68178    0.14159    1.000
    Si5207   Si       0.85496    0.68889    0.11579    1.000
    N5208    N        0.84220    0.75607    0.14969    1.000
    N5209    N        0.89341    0.67738    0.13669    1.000
    Si5210   Si       0.87780    0.75500    0.12729    1.000
    Si5211   Si       0.90640    0.63711    0.13105    1.000
    Si5212   Si       0.91590    0.69869    0.16835    1.000
    N5213    N        0.91158    0.74055    0.15305    1.000
    N5214    N        0.76725    0.58562    0.20691    1.000
    Si5215   Si       0.80120    0.55681    0.21424    1.000
    N5216    N        0.83878    0.56031    0.18898    1.000
    N5217    N        0.78669    0.51770    0.20132    1.000
    Si5218   Si       0.85616    0.59877    0.18076    1.000
    N5219    N        0.82414    0.62640    0.17892    1.000
    Si5220   Si       0.75231    0.51118    0.17548    1.000
    N5221    N        0.87572    0.61096    0.21711    1.000
    N5222    N        0.92481    0.55969    0.20727    1.000
    Si5223   Si       0.93308    0.51504    0.20774    1.000
    Si5224   Si       0.95565    0.58682    0.21523    1.000
    N5225    N        0.94748    0.63041    0.21567    1.000
    N5226    N        0.80568    0.72122    0.19675    1.000
    Si5227   Si       0.81252    0.67039    0.18762    1.000
    N5228    N        0.83352    0.67342    0.22708    1.000
    N5229    N        0.76963    0.65632    0.17679    1.000
    Si5230   Si       0.80852    0.75903    0.17508    1.000
    N5231    N        0.89696    0.67928    0.20176    1.000
    Si5232   Si       0.96509    0.65136    0.18185    1.000
    Si5233   Si       0.87480    0.65375    0.22855    1.000
    N5234    N        0.95848    0.69269    0.17246    1.000
    N5235    N        0.80500    0.56282    0.25766    1.000
    N5236    N        0.75211    0.61603    0.26468    1.000
    Si5237   Si       0.83327    0.53564    0.27783    1.000
    Si5238   Si       0.78387    0.59343    0.28296    1.000
    N5239    N        0.87245    0.54747    0.26070    1.000
    N5240    N        0.92789    0.59113    0.25985    1.000
    Si5241   Si       0.89671    0.51384    0.27634    1.000
    Si5242   Si       0.89449    0.57692    0.23593    1.000
    N5243    N        0.80073    0.72860    0.26482    1.000
    N5244    N        0.75512    0.68046    0.24177    1.000
    Si5245   Si       0.76066    0.72305    0.25081    1.000
    Si5246   Si       0.74613    0.65745    0.27915    1.000
    N5247    N        0.86170    0.74483    0.24163    1.000
    Si5248   Si       0.83012    0.71726    0.23476    1.000
    Si5249   Si       0.87858    0.74935    0.28210    1.000
    Si5250   Si       0.93456    0.63414    0.25836    1.000
    N5251    N        0.89681    0.65370    0.26626    1.000
    N5252    N        0.96656    0.64661    0.28539    1.000
    N5253    N        0.84248    0.55466    0.32059    1.000
    N5254    N        0.76055    0.56515    0.30909    1.000
    N5255    N        0.80980    0.61585    0.30839    1.000
    Si5256   Si       0.82849    0.59187    0.33894    1.000
    Si5257   Si       0.81445    0.52744    0.34375    1.000
    N5258    N        0.91652    0.53514    0.30983    1.000
    N5259    N        0.97707    0.57765    0.30806    1.000
    Si5260   Si       0.93437    0.57465    0.29895    1.000
    Si5261   Si       0.88434    0.55423    0.33371    1.000
    N5262    N        0.90463    0.59301    0.32660    1.000
    Si5263   Si       0.80527    0.65529    0.32427    1.000
    N5264    N        0.76918    0.67615    0.31187    1.000
    N5265    N        0.84120    0.68004    0.31416    1.000
    Si5266   Si       0.84448    0.71756    0.33399    1.000
    Si5267   Si       0.77092    0.71310    0.33904    1.000
    N5268    N        0.76520    0.75117    0.31697    1.000
    N5269    N        0.84637    0.75716    0.31193    1.000
    Si5270   Si       0.80334    0.75799    0.29658    1.000
    Si5271   Si       0.88220    0.67274    0.30196    1.000
    Si5272   Si       0.98905    0.67856    0.30747    1.000
    Si5273   Si       0.91739    0.70609    0.34029    1.000
    N5274    N        0.89612    0.71495    0.30071    1.000
    N5275    N        0.96612    0.69901    0.33752    1.000
    N5276    N        0.90387    0.66235    0.33685    1.000
    N5277    N        0.80012    0.57060    0.36522    1.000
    N5278    N        0.85545    0.61771    0.36145    1.000
    N5279    N        0.77132    0.51843    0.35687    1.000
    Si5280   Si       0.85629    0.52772    0.40207    1.000
    Si5281   Si       0.75929    0.56053    0.35120    1.000
    Si5282   Si       0.80305    0.58204    0.40820    1.000
    N5283    N        0.91973    0.61226    0.39140    1.000
    N5284    N        0.88408    0.55087    0.37753    1.000
    N5285    N        0.95529    0.55002    0.37589    1.000
    Si5286   Si       0.92097    0.56743    0.39410    1.000
    Si5287   Si       0.89811    0.62384    0.35552    1.000
    N5288    N        0.98802    0.60609    0.39363    1.000
    N5289    N        0.74444    0.70234    0.37099    1.000
    Si5290   Si       0.80713    0.75110    0.38848    1.000
    Si5291   Si       0.83576    0.64180    0.39137    1.000
    Si5292   Si       0.76400    0.66500    0.38615    1.000
    N5293    N        0.80044    0.65219    0.36739    1.000
    N5294    N        0.80895    0.72104    0.35677    1.000
    N5295    N        0.87751    0.71835    0.36199    1.000
    N5296    N        0.98033    0.72814    0.40606    1.000
    N5297    N        0.93214    0.74596    0.35139    1.000
    Si5298   Si       0.97844    0.73513    0.36147    1.000
    Si5299   Si       0.86713    0.71348    0.40450    1.000
    N5300    N        0.86601    0.67039    0.40876    1.000
    N5301    N        0.82023    0.61837    0.42355    1.000
    N5302    N        0.82743    0.55066    0.42567    1.000
    N5303    N        0.76251    0.57919    0.42200    1.000
    N5304    N        0.76814    0.52307    0.45931    1.000
    Si5305   Si       0.80665    0.54564    0.46291    1.000
    Si5306   Si       0.74278    0.54087    0.42824    1.000
    Si5307   Si       0.84076    0.61540    0.46344    1.000
    Si5308   Si       0.91634    0.59000    0.46365    1.000
    Si5309   Si       0.96430    0.53144    0.43814    1.000
    N5310    N        0.92941    0.55915    0.43601    1.000
    N5311    N        0.88477    0.61886    0.45472    1.000
    Si5312   Si       0.95537    0.62389    0.41746    1.000
    N5313    N        0.95478    0.61304    0.46170    1.000
    Si5314   Si       0.82433    0.75004    0.46042    1.000
    N5315    N        0.83538    0.73976    0.41933    1.000
    N5316    N        0.77196    0.68297    0.42435    1.000
    Si5317   Si       0.74422    0.71846    0.41902    1.000
    N5318    N        0.77053    0.75466    0.41057    1.000
    Si5319   Si       0.90256    0.72990    0.46290    1.000
    N5320    N        0.90146    0.73646    0.42035    1.000
    N5321    N        0.93885    0.66338    0.42145    1.000
    Si5322   Si       0.97359    0.68904    0.42202    1.000
    Si5323   Si       0.89695    0.65700    0.43395    1.000
    N5324    N        0.89443    0.68576    0.46791    1.000
    N5325    N        0.81445    0.58501    0.48334    1.000
    N5326    N        0.75069    0.59172    0.51900    1.000
    N5327    N        0.83347    0.51819    0.48503    1.000
    Si5328   Si       0.79377    0.58169    0.52082    1.000
    N5329    N        0.97215    0.52159    0.47875    1.000
    N5330    N        0.91182    0.57870    0.50486    1.000
    Si5331   Si       0.97662    0.61316    0.50055    1.000
    N5332    N        0.90547    0.50977    0.49613    1.000
    Si5333   Si       0.90910    0.54174    0.52555    1.000
    N5334    N        0.83502    0.65082    0.48717    1.000
    N5335    N        0.80330    0.71731    0.48173    1.000
    N5336    N        0.76671    0.65911    0.50066    1.000
    Si5337   Si       0.80543    0.65306    0.52074    1.000
    Si5338   Si       0.77449    0.68821    0.46736    1.000
    N5339    N        0.94231    0.74054    0.48080    1.000
    Si5340   Si       0.86685    0.74442    0.52147    1.000
    Si5341   Si       0.87128    0.66999    0.50147    1.000
    N5342    N        0.86569    0.74868    0.47763    1.000
    Si5343   Si       0.98002    0.71896    0.48969    1.000
    N5344    N        0.95237    0.63717    0.52835    1.000
    N5345    N        0.80120    0.61810    0.54550    1.000
    N5346    N        0.81015    0.54754    0.54134    1.000
    Si5347   Si       0.78038    0.61499    0.58266    1.000
    Si5348   Si       0.98774    0.54307    0.54723    1.000
    N5349    N        0.88305    0.53787    0.56015    1.000
    N5350    N        0.92051    0.59194    0.56795    1.000
    N5351    N        0.94859    0.52782    0.53795    1.000
    Si5352   Si       0.91525    0.61341    0.53223    1.000
    N5353    N        0.80728    0.68868    0.54433    1.000
    N5354    N        0.76097    0.74763    0.54141    1.000
    N5355    N        0.82884    0.75577    0.53535    1.000
    Si5356   Si       0.79714    0.72714    0.52563    1.000
    N5357    N        0.88486    0.64381    0.53334    1.000
    N5358    N        0.97843    0.70271    0.52910    1.000
    N5359    N        0.87417    0.70269    0.53035    1.000
    Si5360   Si       0.88170    0.67640    0.56390    1.000
    N5361    N        0.92314    0.67885    0.58065    1.000
    Si5362   Si       0.95990    0.67220    0.55379    1.000
    N5363    N        0.83348    0.51821    0.60053    1.000
    N5364    N        0.78605    0.57369    0.59546    1.000
    N5365    N        0.85306    0.58427    0.59804    1.000
    Si5366   Si       0.85549    0.62534    0.61428    1.000
    Si5367   Si       0.74366    0.56687    0.59942    1.000
    Si5368   Si       0.82344    0.55620    0.58140    1.000
    N5369    N        0.96787    0.62124    0.60441    1.000
    N5370    N        0.92543    0.55775    0.61769    1.000
    Si5371   Si       0.95364    0.58111    0.59431    1.000
    Si5372   Si       0.89221    0.56776    0.59019    1.000
    N5373    N        0.89709    0.62690    0.62422    1.000
    N5374    N        0.85301    0.66532    0.59494    1.000
    N5375    N        0.79054    0.64955    0.60564    1.000
    N5376    N        0.79522    0.71686    0.60386    1.000
    Si5377   Si       0.81342    0.68151    0.58491    1.000
    Si5378   Si       0.76980    0.74912    0.58694    1.000
    Si5379   Si       0.98752    0.69035    0.62874    1.000
    N5380    N        0.96161    0.73539    0.58493    1.000
    Si5381   Si       0.92180    0.71921    0.60059    1.000
    N5382    N        0.88684    0.74133    0.58763    1.000
    N5383    N        0.90980    0.72643    0.64246    1.000
    Si5384   Si       0.87351    0.74593    0.62814    1.000
    Si5385   Si       0.93242    0.64566    0.61206    1.000
    Si5386   Si       0.83913    0.60672    0.69555    1.000
    N5387    N        0.83320    0.62079    0.65297    1.000
    N5388    N        0.76003    0.62317    0.66032    1.000
    N5389    N        0.87640    0.51625    0.65912    1.000
    N5390    N        0.98276    0.56850    0.65730    1.000
    N5391    N        0.91556    0.56249    0.68533    1.000
    Si5392   Si       0.94379    0.54678    0.65676    1.000
    Si5393   Si       0.98281    0.59526    0.68984    1.000
    Si5394   Si       0.87922    0.53974    0.69523    1.000
    N5395    N        0.94588    0.62099    0.69356    1.000
    Si5396   Si       0.82375    0.75342    0.68719    1.000
    Si5397   Si       0.79592    0.64304    0.64717    1.000
    N5398    N        0.78578    0.68137    0.67220    1.000
    N5399    N        0.84030    0.73032    0.65428    1.000
    N5400    N        0.78251    0.74906    0.67304    1.000
    Si5401   Si       0.79923    0.71640    0.64742    1.000
    N5402    N        0.91556    0.68829    0.70135    1.000
    N5403    N        0.95455    0.74885    0.69586    1.000
    Si5404   Si       0.91581    0.72937    0.68534    1.000
    Si5405   Si       0.94976    0.66514    0.68730    1.000
    N5406    N        0.95230    0.66980    0.64403    1.000
    N5407    N        0.77495    0.54192    0.72621    1.000
    Si5408   Si       0.81568    0.52667    0.71597    1.000
    N5409    N        0.80244    0.62454    0.71140    1.000
    N5410    N        0.84147    0.56310    0.70537    1.000
    N5411    N        0.95908    0.51252    0.74490    1.000
    N5412    N        0.91042    0.57696    0.74726    1.000
    N5413    N        0.89047    0.51495    0.72962    1.000
    Si5414   Si       0.91162    0.59889    0.70930    1.000
    N5415    N        0.87863    0.62364    0.70535    1.000
    Si5416   Si       0.92108    0.53513    0.75434    1.000
    N5417    N        0.98871    0.63514    0.75881    1.000
    N5418    N        0.81774    0.72803    0.72062    1.000
    N5419    N        0.76875    0.67675    0.73788    1.000
    Si5420   Si       0.84029    0.72003    0.75577    1.000
    Si5421   Si       0.77847    0.71382    0.70796    1.000
    N5422    N        0.86119    0.68277    0.75101    1.000
    Si5423   Si       0.76820    0.64820    0.69955    1.000
    Si5424   Si       0.89165    0.66288    0.72629    1.000
    N5425    N        0.98372    0.68324    0.70673    1.000
    N5426    N        0.91753    0.64263    0.75521    1.000
    N5427    N        0.76514    0.58977    0.78156    1.000
    Si5428   Si       0.79131    0.61848    0.80146    1.000
    N5429    N        0.78180    0.52217    0.79593    1.000
    Si5430   Si       0.76271    0.54866    0.76828    1.000
    N5431    N        0.86649    0.61926    0.79975    1.000
    N5432    N        0.93473    0.53552    0.79638    1.000
    Si5433   Si       0.90324    0.60791    0.77804    1.000
    N5434    N        0.93872    0.61283    0.80438    1.000
    Si5435   Si       0.97898    0.53212    0.79427    1.000
    N5436    N        0.81222    0.65185    0.78468    1.000
    N5437    N        0.80836    0.71696    0.78352    1.000
    Si5438   Si       0.77992    0.68092    0.78054    1.000
    Si5439   Si       0.78069    0.74092    0.80570    1.000
    Si5440   Si       0.85399    0.65953    0.79027    1.000
    N5441    N        0.75405    0.64706    0.80347    1.000
    N5442    N        0.74882    0.71081    0.79865    1.000
    N5443    N        0.86576    0.74789    0.77518    1.000
    N5444    N        0.96490    0.67841    0.80391    1.000
    Si5445   Si       0.88116    0.73261    0.81134    1.000
    N5446    N        0.92348    0.74005    0.80875    1.000
    Si5447   Si       0.95274    0.64722    0.77946    1.000
    N5448    N        0.87203    0.68928    0.81820    1.000
    N5449    N        0.80832    0.60625    0.83827    1.000
    Si5450   Si       0.77954    0.52817    0.83665    1.000
    N5451    N        0.81450    0.53984    0.86022    1.000
    Si5452   Si       0.85311    0.60516    0.84163    1.000
    N5453    N        0.75472    0.55933    0.85380    1.000
    Si5454   Si       0.79575    0.58198    0.87245    1.000
    N5455    N        0.87745    0.56420    0.84288    1.000
    N5456    N        0.94989    0.55563    0.85529    1.000
    Si5457   Si       0.96294    0.59075    0.83151    1.000
    Si5458   Si       0.91480    0.54096    0.83406    1.000
    Si5459   Si       0.97586    0.51916    0.86338    1.000
    N5460    N        0.96867    0.61337    0.86894    1.000
    N5461    N        0.76005    0.69670    0.86336    1.000
    N5462    N        0.79990    0.74828    0.84516    1.000
    Si5463   Si       0.78186    0.72885    0.87941    1.000
    Si5464   Si       0.94707    0.71036    0.82805    1.000
    N5465    N        0.87041    0.64014    0.86234    1.000
    Si5466   Si       0.88458    0.68009    0.86068    1.000
    N5467    N        0.86828    0.75165    0.84694    1.000
    N5468    N        0.98614    0.72806    0.83574    1.000
    N5469    N        0.92677    0.69359    0.86105    1.000
    N5470    N        0.77072    0.58174    0.90912    1.000
    N5471    N        0.83824    0.58867    0.88840    1.000
    Si5472   Si       0.84865    0.62946    0.89910    1.000
    Si5473   Si       0.85355    0.55020    0.87541    1.000
    N5474    N        0.87093    0.52545    0.90815    1.000
    N5475    N        0.91857    0.57776    0.91627    1.000
    Si5476   Si       0.95590    0.57851    0.89242    1.000
    Si5477   Si       0.89900    0.54254    0.93565    1.000
    N5478    N        0.81446    0.65173    0.91290    1.000
    N5479    N        0.80144    0.72047    0.91594    1.000
    Si5480   Si       0.78805    0.68160    0.93048    1.000
    N5481    N        0.74355    0.67968    0.93066    1.000
    N5482    N        0.74910    0.75536    0.88935    1.000
    Si5483   Si       0.94012    0.71626    0.89547    1.000
    Si5484   Si       0.87810    0.74402    0.89006    1.000
    N5485    N        0.97999    0.73024    0.90378    1.000
    N5486    N        0.93274    0.69148    0.93255    1.000
    N5487    N        0.87633    0.70091    0.90024    1.000
    Si5488   Si       0.89227    0.67836    0.93585    1.000
    N5489    N        0.88030    0.63592    0.92668    1.000
    N5490    N        0.92012    0.75493    0.89477    1.000
    N5491    N        0.79949    0.55989    0.97347    1.000
    Si5492   Si       0.76881    0.58399    0.95239    1.000
    N5493    N        0.76588    0.62096    0.97656    1.000
    Si5494   Si       0.83877    0.57449    0.98545    1.000
    Si5495   Si       0.79717    0.51830    0.98618    1.000
    N5496    N        0.83868    0.61834    0.98505    1.000
    N5497    N        0.92635    0.51621    0.95546    1.000
    N5498    N        0.87367    0.56887    0.96075    1.000
    N5499    N        0.91663    0.61576    0.98018    1.000
    N5500    N        0.97335    0.57105    0.98454    1.000
    Si5501   Si       0.89664    0.60098    0.94370    1.000
    N5502    N        0.98310    0.63248    0.95923    1.000
    N5503    N        0.80164    0.67863    0.97248    1.000
    Si5504   Si       0.80258    0.63908    0.99130    1.000
    N5505    N        0.89349    0.74629    0.99659    1.000
    N5506    N        0.88260    0.67600    0.97781    1.000
    N5507    N        0.96440    0.74586    0.96427    1.000
    Si5508   Si       0.87790    0.63425    0.99233    1.000
    Si5509   Si       0.96703    0.70232    0.95823    1.000
    Si5510   Si       0.95332    0.64077    0.99177    1.000
    N5511    N        0.95824    0.68447    0.99804    1.000
    N5512    N        0.78535    0.80306    0.02372    1.000
    Si5513   Si       0.78464    0.84495    0.01265    1.000
    N5514    N        0.84266    0.76783    0.04341    1.000
    Si5515   Si       0.85484    0.76890    0.00055    1.000
    N5516    N        0.79028    0.87690    0.04447    1.000
    N5517    N        0.73949    0.85904    0.01167    1.000
    N5518    N        0.88722    0.85894    0.02525    1.000
    N5519    N        0.96151    0.86503    0.02324    1.000
    Si5520   Si       0.95405    0.82360    0.03660    1.000
    N5521    N        0.93228    0.80298    0.00145    1.000
    N5522    N        0.99132    0.80146    0.04308    1.000
    Si5523   Si       0.74745    0.88747    0.04436    1.000
    Si5524   Si       0.80446    0.97339    0.04544    1.000
    N5525    N        0.85106    0.95942    0.02648    1.000
    N5526    N        0.79390    0.95668    0.00435    1.000
    Si5527   Si       0.75428    0.94474    0.00077    1.000
    Si5528   Si       0.89293    0.96324    0.01698    1.000
    N5529    N        0.97102    0.93066    0.03473    1.000
    N5530    N        0.90876    0.92298    0.00556    1.000
    Si5531   Si       0.93813    0.90172    0.03079    1.000
    N5532    N        0.81340    0.81189    0.09242    1.000
    N5533    N        0.78081    0.76075    0.08245    1.000
    Si5534   Si       0.78092    0.79116    0.11321    1.000
    Si5535   Si       0.83212    0.84351    0.11373    1.000
    N5536    N        0.74157    0.81092    0.11215    1.000
    Si5537   Si       0.80668    0.78722    0.05862    1.000
    Si5538   Si       0.97935    0.76401    0.06340    1.000
    N5539    N        0.86957    0.85807    0.09805    1.000
    Si5540   Si       0.89900    0.85791    0.06674    1.000
    N5541    N        0.92809    0.82530    0.07083    1.000
    N5542    N        0.96319    0.77487    0.10252    1.000
    Si5543   Si       0.93032    0.80259    0.10831    1.000
    N5544    N        0.80650    0.88070    0.11044    1.000
    N5545    N        0.78557    0.94135    0.07149    1.000
    N5546    N        0.83020    0.98906    0.08225    1.000
    N5547    N        0.85171    0.92285    0.08417    1.000
    Si5548   Si       0.80991    0.90517    0.07471    1.000
    Si5549   Si       0.76411    0.95086    0.10727    1.000
    N5550    N        0.75630    0.99337    0.11322    1.000
    N5551    N        0.96616    0.99415    0.05670    1.000
    Si5552   Si       0.86122    0.96088    0.06933    1.000
    N5553    N        0.90271    0.97287    0.06015    1.000
    N5554    N        0.92294    0.89465    0.07060    1.000
    Si5555   Si       0.92874    0.00390    0.07663    1.000
    Si5556   Si       0.98199    0.95559    0.06740    1.000
    N5557    N        0.97014    0.94096    0.10678    1.000
    Si5558   Si       0.94176    0.90613    0.10809    1.000
    N5559    N        0.83797    0.83335    0.15614    1.000
    N5560    N        0.77911    0.78474    0.15406    1.000
    N5561    N        0.94897    0.80692    0.15233    1.000
    Si5562   Si       0.94546    0.85047    0.16156    1.000
    Si5563   Si       0.87870    0.81928    0.15917    1.000
    N5564    N        0.89031    0.79554    0.12418    1.000
    N5565    N        0.96156    0.87188    0.12697    1.000
    Si5566   Si       0.98776    0.79216    0.13349    1.000
    N5567    N        0.90155    0.85471    0.16937    1.000
    Si5568   Si       0.80512    0.90175    0.14842    1.000
    N5569    N        0.84962    0.90441    0.15466    1.000
    N5570    N        0.79043    0.94099    0.13964    1.000
    Si5571   Si       0.80210    0.97333    0.16686    1.000
    Si5572   Si       0.74011    0.00464    0.15213    1.000
    Si5573   Si       0.87046    0.89951    0.11555    1.000
    N5574    N        0.93759    0.00014    0.12210    1.000
    Si5575   Si       0.97185    0.97353    0.13571    1.000
    N5576    N        0.95359    0.95244    0.17023    1.000
    N5577    N        0.90701    0.91715    0.13174    1.000
    Si5578   Si       0.91225    0.94171    0.16617    1.000
    N5579    N        0.89067    0.98010    0.16984    1.000
    N5580    N        0.82049    0.78688    0.20894    1.000
    Si5581   Si       0.76105    0.87244    0.21228    1.000
    N5582    N        0.77972    0.83275    0.21760    1.000
    Si5583   Si       0.81323    0.84361    0.19116    1.000
    Si5584   Si       0.86238    0.78381    0.22167    1.000
    N5585    N        0.84117    0.86888    0.21515    1.000
    N5586    N        0.75735    0.76159    0.23156    1.000
    N5587    N        0.78661    0.87600    0.17679    1.000
    N5588    N        0.89112    0.79360    0.19116    1.000
    N5589    N        0.97829    0.85699    0.19153    1.000
    Si5590   Si       0.92677    0.77472    0.17594    1.000
    Si5591   Si       0.96517    0.85318    0.23238    1.000
    N5592    N        0.94514    0.75749    0.20986    1.000
    N5593    N        0.76346    0.98344    0.18222    1.000
    N5594    N        0.82799    0.96283    0.20115    1.000
    Si5595   Si       0.76084    0.99831    0.22375    1.000
    Si5596   Si       0.97499    0.96519    0.20442    1.000
    N5597    N        0.90012    0.91739    0.20056    1.000
    Si5598   Si       0.87307    0.88564    0.18631    1.000
    Si5599   Si       0.86697    0.98236    0.20705    1.000
    N5600    N        0.80303    0.79708    0.27644    1.000
    Si5601   Si       0.83691    0.82403    0.28546    1.000
    N5602    N        0.81557    0.86281    0.28807    1.000
    Si5603   Si       0.78600    0.79430    0.23651    1.000
    N5604    N        0.86566    0.81495    0.25272    1.000
    Si5605   Si       0.90818    0.81807    0.26724    1.000
    Si5606   Si       0.96615    0.77724    0.24243    1.000
    N5607    N        0.94547    0.81544    0.24406    1.000
    N5608    N        0.97119    0.76384    0.28415    1.000
    N5609    N        0.90820    0.85367    0.29039    1.000
    N5610    N        0.90897    0.77899    0.28868    1.000
    Si5611   Si       0.82145    0.88523    0.25146    1.000
    Si5612   Si       0.81549    0.95943    0.24196    1.000
    N5613    N        0.77356    0.96371    0.24797    1.000
    Si5614   Si       0.76090    0.92581    0.26732    1.000
    N5615    N        0.82955    0.99426    0.26529    1.000
    N5616    N        0.83614    0.92467    0.25911    1.000
    N5617    N        0.78066    0.89866    0.24060    1.000
    Si5618   Si       0.93322    0.88815    0.28524    1.000
    N5619    N        0.91209    0.92703    0.28432    1.000
    N5620    N        0.95279    0.95730    0.23910    1.000
    Si5621   Si       0.86984    0.94437    0.27716    1.000
    Si5622   Si       0.92027    0.92655    0.23667    1.000
    N5623    N        0.94173    0.88664    0.24328    1.000
    Si5624   Si       0.92370    0.98527    0.25690    1.000
    N5625    N        0.88793    0.96678    0.24152    1.000
    Si5626   Si       0.78160    0.87465    0.31378    1.000
    N5627    N        0.86064    0.82314    0.32230    1.000
    N5628    N        0.74392    0.85640    0.30426    1.000
    Si5629   Si       0.85170    0.78830    0.34531    1.000
    N5630    N        0.93623    0.81526    0.33709    1.000
    Si5631   Si       0.90161    0.83905    0.32949    1.000
    Si5632   Si       0.94456    0.77600    0.31664    1.000
    N5633    N        0.98392    0.77732    0.34659    1.000
    N5634    N        0.78172    0.98069    0.32031    1.000
    Si5635   Si       0.76090    0.94740    0.33734    1.000
    N5636    N        0.77149    0.91716    0.30823    1.000
    N5637    N        0.85528    0.96140    0.31485    1.000
    Si5638   Si       0.82271    0.98943    0.30884    1.000
    Si5639   Si       0.92730    0.95516    0.31656    1.000
    N5640    N        0.96654    0.88161    0.31156    1.000
    N5641    N        0.92285    0.99452    0.29894    1.000
    N5642    N        0.97097    0.95672    0.32700    1.000
    Si5643   Si       0.78709    0.82462    0.37430    1.000
    N5644    N        0.81261    0.78942    0.36489    1.000
    N5645    N        0.79087    0.86464    0.35665    1.000
    N5646    N        0.74422    0.81452    0.36872    1.000
    N5647    N        0.88144    0.79192    0.37945    1.000
    Si5648   Si       0.96690    0.81160    0.36807    1.000
    N5649    N        0.89806    0.86350    0.36623    1.000
    N5650    N        0.94690    0.79165    0.40165    1.000
    Si5651   Si       0.88774    0.83004    0.39629    1.000
    Si5652   Si       0.91490    0.76273    0.38922    1.000
    N5653    N        0.84613    0.91143    0.37000    1.000
    N5654    N        0.78113    0.93754    0.37325    1.000
    Si5655   Si       0.80450    0.90217    0.37787    1.000
    N5656    N        0.84935    0.98068    0.37751    1.000
    Si5657   Si       0.78190    0.97178    0.40066    1.000
    Si5658   Si       0.86475    0.94866    0.35560    1.000
    Si5659   Si       0.97556    0.98411    0.35963    1.000
    Si5660   Si       0.97867    0.88488    0.35551    1.000
    N5661    N        0.95818    0.89799    0.38904    1.000
    N5662    N        0.90790    0.94626    0.35436    1.000
    Si5663   Si       0.87541    0.88905    0.39178    1.000
    Si5664   Si       0.93041    0.93318    0.38898    1.000
    N5665    N        0.95679    0.96647    0.39587    1.000
    Si5666   Si       0.81911    0.85619    0.43313    1.000
    Si5667   Si       0.77115    0.79219    0.43164    1.000
    N5668    N        0.79117    0.82676    0.41641    1.000
    N5669    N        0.85445    0.85389    0.40995    1.000
    N5670    N        0.91676    0.84498    0.42608    1.000
    Si5671   Si       0.94447    0.81325    0.43813    1.000
    N5672    N        0.97654    0.84294    0.43452    1.000
    Si5673   Si       0.94737    0.87418    0.42162    1.000
    N5674    N        0.74049    0.97002    0.42038    1.000
    Si5675   Si       0.74389    0.96400    0.46401    1.000
    N5676    N        0.80376    0.96164    0.43598    1.000
    N5677    N        0.80169    0.89545    0.42143    1.000
    Si5678   Si       0.79965    0.92109    0.45495    1.000
    Si5679   Si       0.80629    0.99302    0.46124    1.000
    Si5680   Si       0.90144    0.91252    0.46163    1.000
    Si5681   Si       0.95907    0.99777    0.42947    1.000
    N5682    N        0.90094    0.91442    0.41744    1.000
    N5683    N        0.94468    0.89185    0.46369    1.000
    Si5684   Si       0.79673    0.82353    0.48843    1.000
    N5685    N        0.75960    0.85023    0.47787    1.000
    N5686    N        0.82863    0.84851    0.47345    1.000
    Si5687   Si       0.84764    0.87694    0.50013    1.000
    N5688    N        0.79663    0.78531    0.46679    1.000
    N5689    N        0.95934    0.85523    0.51529    1.000
    Si5690   Si       0.92777    0.85557    0.48443    1.000
    Si5691   Si       0.93516    0.77715    0.50723    1.000
    N5692    N        0.92826    0.81106    0.47921    1.000
    N5693    N        0.88994    0.87669    0.48856    1.000
    N5694    N        0.76608    0.99806    0.48211    1.000
    Si5695   Si       0.74834    0.88898    0.49998    1.000
    N5696    N        0.82144    0.97909    0.50080    1.000
    N5697    N        0.83383    0.91459    0.48179    1.000
    Si5698   Si       0.85297    0.94846    0.49965    1.000
    N5699    N        0.76092    0.92491    0.47555    1.000
    Si5700   Si       0.78737    0.99422    0.52404    1.000
    Si5701   Si       0.92206    0.97542    0.50285    1.000
    Si5702   Si       0.97557    0.89299    0.49771    1.000
    N5703    N        0.95333    0.98585    0.47285    1.000
    N5704    N        0.89261    0.95032    0.48158    1.000
    Si5705   Si       0.82200    0.79116    0.55642    1.000
    Si5706   Si       0.79832    0.86244    0.55446    1.000
    N5707    N        0.80019    0.82282    0.53423    1.000
    N5708    N        0.85961    0.80419    0.57450    1.000
    N5709    N        0.83840    0.87911    0.54256    1.000
    Si5710   Si       0.89611    0.78266    0.56983    1.000
    N5711    N        0.96592    0.78743    0.53416    1.000
    Si5712   Si       0.96759    0.77835    0.57718    1.000
    N5713    N        0.90106    0.76993    0.52963    1.000
    Si5714   Si       0.77045    0.92590    0.56860    1.000
    N5715    N        0.76628    0.96696    0.55312    1.000
    Si5716   Si       0.84578    0.91434    0.56604    1.000
    N5717    N        0.77021    0.89275    0.53833    1.000
    Si5718   Si       0.74226    0.99483    0.57956    1.000
    N5719    N        0.85969    0.94642    0.54193    1.000
    N5720    N        0.92720    0.95569    0.53913    1.000
    Si5721   Si       0.89341    0.95418    0.56703    1.000
    Si5722   Si       0.96439    0.94628    0.55981    1.000
    N5723    N        0.98308    0.91132    0.53880    1.000
    Si5724   Si       0.79096    0.82106    0.61495    1.000
    N5725    N        0.83034    0.83366    0.62999    1.000
    N5726    N        0.77994    0.85758    0.59244    1.000
    N5727    N        0.79485    0.78497    0.59046    1.000
    N5728    N        0.75757    0.81367    0.64113    1.000
    Si5729   Si       0.86771    0.82192    0.61263    1.000
    N5730    N        0.89489    0.85327    0.61019    1.000
    Si5731   Si       0.93713    0.83986    0.60973    1.000
    N5732    N        0.95989    0.87437    0.59483    1.000
    N5733    N        0.93274    0.80166    0.58773    1.000
    N5734    N        0.87793    0.78782    0.63816    1.000
    Si5735   Si       0.75336    0.88509    0.61623    1.000
    Si5736   Si       0.80279    0.99486    0.62869    1.000
    Si5737   Si       0.81399    0.91797    0.63085    1.000
    N5738    N        0.76036    0.99976    0.61811    1.000
    N5739    N        0.74003    0.92176    0.59828    1.000
    N5740    N        0.80991    0.92229    0.58728    1.000
    N5741    N        0.96347    0.94601    0.60360    1.000
    Si5742   Si       0.88584    0.89386    0.62388    1.000
    N5743    N        0.89418    0.98846    0.59299    1.000
    N5744    N        0.88278    0.91781    0.59056    1.000
    Si5745   Si       0.95933    0.97166    0.63808    1.000
    Si5746   Si       0.95825    0.90720    0.62486    1.000
    Si5747   Si       0.75659    0.78561    0.67404    1.000
    Si5748   Si       0.84473    0.85572    0.66403    1.000
    N5749    N        0.83749    0.79338    0.69317    1.000
    N5750    N        0.81554    0.85704    0.69474    1.000
    Si5751   Si       0.92512    0.85196    0.68723    1.000
    N5752    N        0.88419    0.84096    0.67951    1.000
    Si5753   Si       0.87879    0.79726    0.67927    1.000
    N5754    N        0.95000    0.83636    0.65222    1.000
    Si5755   Si       0.84016    0.94892    0.68402    1.000
    Si5756   Si       0.78942    0.89221    0.69375    1.000
    N5757    N        0.77925    0.89791    0.65032    1.000
    N5758    N        0.81880    0.95771    0.64582    1.000
    N5759    N        0.83074    0.98494    0.70599    1.000
    N5760    N        0.84909    0.89515    0.64427    1.000
    N5761    N        0.88418    0.95398    0.67301    1.000
    N5762    N        0.93270    0.00233    0.65684    1.000
    Si5763   Si       0.89542    0.99652    0.67750    1.000
    Si5764   Si       0.91925    0.92949    0.68552    1.000
    N5765    N        0.95830    0.94715    0.67388    1.000
    Si5766   Si       0.98212    0.89454    0.69060    1.000
    N5767    N        0.92089    0.90561    0.64653    1.000
    Si5768   Si       0.82736    0.82470    0.72143    1.000
    N5769    N        0.79459    0.82616    0.74859    1.000
    Si5770   Si       0.75595    0.83950    0.73650    1.000
    N5771    N        0.75843    0.88326    0.72238    1.000
    N5772    N        0.86382    0.81921    0.74577    1.000
    N5773    N        0.74391    0.81399    0.70619    1.000
    N5774    N        0.93192    0.82258    0.71886    1.000
    Si5775   Si       0.93779    0.77884    0.72155    1.000
    Si5776   Si       0.90407    0.83115    0.75143    1.000
    N5777    N        0.96040    0.76926    0.75701    1.000
    N5778    N        0.89717    0.76569    0.70223    1.000
    N5779    N        0.90066    0.87325    0.75921    1.000
    Si5780   Si       0.79532    0.97569    0.73109    1.000
    N5781    N        0.75680    0.95468    0.73358    1.000
    N5782    N        0.81717    0.92294    0.70891    1.000
    Si5783   Si       0.81418    0.91608    0.75250    1.000
    N5784    N        0.93961    0.88774    0.70559    1.000
    N5785    N        0.90023    0.00647    0.72021    1.000
    N5786    N        0.96836    0.98485    0.73428    1.000
    Si5787   Si       0.92428    0.97932    0.74590    1.000
    N5788    N        0.91715    0.94028    0.73002    1.000
    Si5789   Si       0.92946    0.90220    0.74567    1.000
    Si5790   Si       0.79623    0.81234    0.78865    1.000
    N5791    N        0.76881    0.77940    0.79151    1.000
    N5792    N        0.83465    0.80129    0.80739    1.000
    N5793    N        0.79437    0.84722    0.81619    1.000
    Si5794   Si       0.86636    0.79061    0.78050    1.000
    N5795    N        0.90925    0.80283    0.78622    1.000
    Si5796   Si       0.94327    0.77815    0.79564    1.000
    Si5797   Si       0.87904    0.88358    0.79456    1.000
    N5798    N        0.97808    0.79807    0.81502    1.000
    N5799    N        0.84018    0.89495    0.78415    1.000
    Si5800   Si       0.83472    0.98504    0.78983    1.000
    N5801    N        0.78127    0.90569    0.78098    1.000
    Si5802   Si       0.75041    0.91581    0.81099    1.000
    Si5803   Si       0.80934    0.89088    0.81396    1.000
    N5804    N        0.81668    0.95752    0.76283    1.000
    N5805    N        0.80057    0.99547    0.81546    1.000
    N5806    N        0.85560    0.96220    0.81923    1.000
    N5807    N        0.90201    0.91367    0.81572    1.000
    Si5808   Si       0.89897    0.95595    0.81308    1.000
    N5809    N        0.92508    0.97812    0.78929    1.000
    N5810    N        0.95751    0.90919    0.77919    1.000
    Si5811   Si       0.83256    0.77484    0.84430    1.000
    Si5812   Si       0.83510    0.83865    0.83671    1.000
    N5813    N        0.82699    0.81134    0.86841    1.000
    Si5814   Si       0.75902    0.84540    0.84066    1.000
    N5815    N        0.82897    0.87992    0.85572    1.000
    Si5816   Si       0.96761    0.83045    0.84023    1.000
    Si5817   Si       0.90826    0.85362    0.85266    1.000
    N5818    N        0.93307    0.81895    0.86532    1.000
    N5819    N        0.94634    0.86591    0.83140    1.000
    N5820    N        0.87626    0.85093    0.82413    1.000
    Si5821   Si       0.78726    0.96719    0.84619    1.000
    N5822    N        0.75550    0.99166    0.86514    1.000
    N5823    N        0.78750    0.92250    0.84154    1.000
    Si5824   Si       0.85998    0.97271    0.86116    1.000
    N5825    N        0.81868    0.97488    0.87462    1.000
    Si5826   Si       0.79032    0.89477    0.87857    1.000
    Si5827   Si       0.97002    0.96725    0.86025    1.000
    N5828    N        0.96773    0.00361    0.83919    1.000
    N5829    N        0.95530    0.92566    0.86095    1.000
    N5830    N        0.90684    0.97570    0.85474    1.000
    Si5831   Si       0.94476    0.90721    0.82174    1.000
    Si5832   Si       0.80654    0.82637    0.90387    1.000
    N5833    N        0.79111    0.79060    0.92234    1.000
    N5834    N        0.85581    0.77037    0.91783    1.000
    Si5835   Si       0.75113    0.77906    0.92539    1.000
    N5836    N        0.83843    0.84383    0.92930    1.000
    N5837    N        0.77320    0.85100    0.88420    1.000
    Si5838   Si       0.81693    0.75887    0.93445    1.000
    Si5839   Si       0.93186    0.79542    0.89993    1.000
    N5840    N        0.96922    0.80204    0.92061    1.000
    N5841    N        0.95589    0.87008    0.91048    1.000
    N5842    N        0.89233    0.87572    0.88837    1.000
    N5843    N        0.90306    0.81902    0.92270    1.000
    Si5844   Si       0.91500    0.86338    0.92235    1.000
    Si5845   Si       0.98565    0.76461    0.93033    1.000
    Si5846   Si       0.74332    0.93476    0.92876    1.000
    N5847    N        0.81776    0.90735    0.91282    1.000
    Si5848   Si       0.81664    0.95270    0.91433    1.000
    N5849    N        0.75139    0.90663    0.89748    1.000
    N5850    N        0.77432    0.96347    0.92454    1.000
    Si5851   Si       0.85544    0.89782    0.88712    1.000
    Si5852   Si       0.76247    0.00275    0.90723    1.000
    N5853    N        0.95658    0.97561    0.90272    1.000
    Si5854   Si       0.98497    0.97140    0.93558    1.000
    Si5855   Si       0.91101    0.95659    0.89722    1.000
    N5856    N        0.89886    0.99721    0.91140    1.000
    Si5857   Si       0.95856    0.91205    0.90389    1.000
    N5858    N        0.87012    0.93740    0.88630    1.000
    N5859    N        0.92292    0.92810    0.92699    1.000
    N5860    N        0.78970    0.86158    0.97140    1.000
    N5861    N        0.74907    0.77294    0.96855    1.000
    Si5862   Si       0.74718    0.87506    0.97215    1.000
    Si5863   Si       0.82305    0.87984    0.94975    1.000
    Si5864   Si       0.78257    0.76751    0.99719    1.000
    N5865    N        0.81900    0.75833    0.97699    1.000
    Si5866   Si       0.86484    0.80989    0.93781    1.000
    N5867    N        0.86611    0.80694    0.98058    1.000
    Si5868   Si       0.90015    0.83122    0.99206    1.000
    N5869    N        0.90192    0.86833    0.96480    1.000
    Si5870   Si       0.93670    0.75941    0.99735    1.000
    Si5871   Si       0.83316    0.94496    0.98749    1.000
    N5872    N        0.84158    0.96567    0.95072    1.000
    N5873    N        0.84315    0.90423    0.98160    1.000
    N5874    N        0.74865    0.91749    0.96765    1.000
    Si5875   Si       0.92506    0.94343    0.96746    1.000
    N5876    N        0.96665    0.95464    0.97397    1.000
    Si5877   Si       0.87398    0.99702    0.94757    1.000
    N5878    N        0.90127    0.97907    0.97760    1.000
    Si5879   Si       0.88064    0.89123    0.99580    1.000
