# CIF file generated by openbabel 3.1.1, see https://openbabel.org
data_I
_chemical_name_common '3.01-76.aims'
_cell_length_a 39.8417
_cell_length_b 39.8417
_cell_length_c 39.8417
_cell_angle_alpha 90
_cell_angle_beta 90
_cell_angle_gamma 90
loop_
    _atom_site_label
    _atom_site_type_symbol
    _atom_site_fract_x
    _atom_site_fract_y
    _atom_site_fract_z
    _atom_site_occupancy
    N0       N        0.09640    0.03242    0.09391    1.000
    N1       N        0.03985    0.04669    0.05255    1.000
    Si2      Si       0.05541    0.04919    0.09414    1.000
    Si3      Si       0.10233    0.01542    0.05496    1.000
    N4       N        0.11292    0.04402    0.02060    1.000
    N5       N        0.17373    0.02786    0.04616    1.000
    Si6      Si       0.15627    0.03398    0.00689    1.000
    Si7      Si       0.13176    0.04654    0.11673    1.000
    N8       N        0.17169    0.06646    0.10623    1.000
    N9       N        0.02536    0.03264    0.12198    1.000
    Si10     Si       0.09412    0.05162    0.17853    1.000
    Si11     Si       0.03268    0.04347    0.20925    1.000
    Si12     Si       0.99807    0.05563    0.14967    1.000
    N13      N        0.99329    0.04541    0.19138    1.000
    N14      N        0.11116    0.04679    0.21789    1.000
    N15      N        0.09219    0.00861    0.17069    1.000
    N16      N        0.17685    0.02750    0.24147    1.000
    N17      N        0.19714    0.05273    0.18148    1.000
    Si18     Si       0.19161    0.06459    0.22473    1.000
    Si19     Si       0.13625    0.01665    0.23449    1.000
    Si20     Si       0.22495    0.01939    0.17253    1.000
    N21      N        0.22469    0.02783    0.12718    1.000
    N22      N        0.00349    0.03846    0.31598    1.000
    N23      N        0.11388    0.02197    0.27308    1.000
    Si24     Si       0.09057    0.05842    0.25570    1.000
    Si25     Si       0.99666    0.06615    0.34965    1.000
    N26      N        0.04749    0.06057    0.24558    1.000
    N27      N        0.07025    0.03335    0.36925    1.000
    Si28     Si       0.14308    0.02188    0.30676    1.000
    N29      N        0.13720    0.05900    0.32615    1.000
    N30      N        0.23057    0.01306    0.34348    1.000
    N31      N        0.24028    0.01780    0.27426    1.000
    N32      N        0.03530    0.05052    0.48446    1.000
    Si33     Si       0.02164    0.04810    0.44152    1.000
    N34      N        0.11520    0.05883    0.48960    1.000
    N35      N        0.99888    0.03837    0.38226    1.000
    N36      N        0.21001    0.06069    0.46260    1.000
    Si37     Si       0.20382    0.01638    0.45744    1.000
    Si38     Si       0.12275    0.01709    0.48357    1.000
    Si39     Si       0.23756    0.01604    0.38634    1.000
    N40      N        0.22551    0.06017    0.39521    1.000
    N41      N        0.16046    0.02332    0.46262    1.000
    Si42     Si       0.00635    0.05122    0.51684    1.000
    N43      N        0.01478    0.02076    0.54664    1.000
    Si44     Si       0.00011    0.03545    0.58521    1.000
    N45      N        0.10482    0.02295    0.60858    1.000
    N46      N        0.02697    0.07055    0.59413    1.000
    N47      N        0.14319    0.05120    0.56255    1.000
    N48      N        0.19974    0.03638    0.59883    1.000
    N49      N        0.22720    0.05489    0.53993    1.000
    Si50     Si       0.18713    0.06251    0.56402    1.000
    Si51     Si       0.12574    0.01136    0.57095    1.000
    N52      N        0.10252    0.02998    0.68024    1.000
    N53      N        0.00905    0.06051    0.65831    1.000
    N54      N        0.01767    0.03498    0.72701    1.000
    Si55     Si       0.10794    0.05134    0.64013    1.000
    Si56     Si       0.00901    0.06994    0.70164    1.000
    N57      N        0.16791    0.01333    0.67906    1.000
    Si58     Si       0.18760    0.03202    0.64041    1.000
    N59      N        0.15340    0.03171    0.74606    1.000
    N60      N        0.22280    0.05057    0.65940    1.000
    Si61     Si       0.14139    0.03810    0.70177    1.000
    N62      N        0.15220    0.06129    0.64158    1.000
    Si63     Si       0.05195    0.05115    0.80156    1.000
    N64      N        0.07005    0.04636    0.84059    1.000
    N65      N        0.09012    0.06298    0.78080    1.000
    Si66     Si       0.00446    0.03395    0.76602    1.000
    Si67     Si       0.11328    0.03996    0.83125    1.000
    Si68     Si       0.11324    0.02954    0.76467    1.000
    Si69     Si       0.18953    0.05145    0.76214    1.000
    N70      N        0.20068    0.05120    0.80468    1.000
    Si71     Si       0.23056    0.02165    0.81203    1.000
    N72      N        0.22976    0.04997    0.74369    1.000
    Si73     Si       0.04292    0.04207    0.87546    1.000
    Si74     Si       0.10868    0.06396    0.89827    1.000
    N75      N        0.05230    0.05079    0.98156    1.000
    N76      N        0.06867    0.05678    0.90788    1.000
    Si77     Si       0.08446    0.02532    0.99491    1.000
    N78      N        0.01643    0.01196    0.89121    1.000
    Si79     Si       0.23979    0.01291    0.88863    1.000
    N80      N        0.13602    0.05959    0.93215    1.000
    N81      N        0.12149    0.02888    0.87356    1.000
    N82      N        0.21253    0.03175    0.91815    1.000
    Si83     Si       0.21263    0.02102    0.96097    1.000
    N84      N        0.23116    0.05378    0.98156    1.000
    Si85     Si       0.14297    0.01684    0.94343    1.000
    N86      N        0.17379    0.01133    0.97358    1.000
    N87      N        0.06923    0.10268    0.02568    1.000
    N88      N        0.06238    0.09213    0.09779    1.000
    Si89     Si       0.04998    0.11755    0.06326    1.000
    Si90     Si       0.03568    0.07130    0.01539    1.000
    Si91     Si       0.11549    0.08795    0.02266    1.000
    N92      N        0.00743    0.12101    0.05556    1.000
    N93      N        0.21601    0.08151    0.04692    1.000
    N94      N        0.14386    0.09617    0.05264    1.000
    Si95     Si       0.20688    0.08406    0.00212    1.000
    Si96     Si       0.17667    0.06895    0.06229    1.000
    N97      N        0.00418    0.09949    0.15351    1.000
    Si98     Si       0.04006    0.10710    0.17756    1.000
    N99      N        0.02816    0.11770    0.21979    1.000
    N100     N        0.05505    0.06874    0.18112    1.000
    N101     N        0.24033    0.08880    0.13377    1.000
    Si102    Si       0.13704    0.11111    0.15266    1.000
    Si103    Si       0.13393    0.12270    0.23456    1.000
    N104     N        0.22972    0.12413    0.19691    1.000
    N105     N        0.11829    0.07153    0.14924    1.000
    N106     N        0.18106    0.11170    0.15241    1.000
    Si107    Si       0.19987    0.07057    0.13876    1.000
    N108     N        0.17295    0.10472    0.23220    1.000
    N109     N        0.23286    0.07137    0.23490    1.000
    N110     N        0.02807    0.09450    0.35762    1.000
    Si111    Si       0.02458    0.09616    0.25748    1.000
    N112     N        0.08980    0.10251    0.35788    1.000
    N113     N        0.04510    0.11736    0.28941    1.000
    N114     N        0.10305    0.10112    0.25680    1.000
    Si115    Si       0.06155    0.12639    0.33063    1.000
    N116     N        0.21143    0.10778    0.34491    1.000
    Si117    Si       0.13200    0.09611    0.34625    1.000
    N118     N        0.07733    0.10971    0.47659    1.000
    Si119    Si       0.04601    0.11133    0.44638    1.000
    N120     N        0.04683    0.07630    0.41967    1.000
    Si121    Si       0.06276    0.07533    0.37724    1.000
    N122     N        0.00478    0.11620    0.46350    1.000
    N123     N        0.20045    0.12309    0.41200    1.000
    Si124    Si       0.11761    0.12395    0.47926    1.000
    Si125    Si       0.19992    0.09110    0.38292    1.000
    N126     N        0.14657    0.10317    0.45252    1.000
    N127     N        0.15284    0.08911    0.38507    1.000
    Si128    Si       0.15625    0.12056    0.41528    1.000
    Si129    Si       0.16290    0.06677    0.47182    1.000
    N130     N        0.01193    0.09155    0.53073    1.000
    Si131    Si       0.04649    0.09196    0.55896    1.000
    N132     N        0.07992    0.07311    0.54005    1.000
    Si133    Si       0.99638    0.12253    0.50628    1.000
    Si134    Si       0.07402    0.07031    0.49638    1.000
    Si135    Si       0.17635    0.12027    0.53045    1.000
    N136     N        0.18193    0.10523    0.57282    1.000
    N137     N        0.17513    0.07734    0.51395    1.000
    N138     N        0.13057    0.11919    0.52154    1.000
    Si139    Si       0.12659    0.07472    0.53069    1.000
    Si140    Si       0.22072    0.08055    0.50351    1.000
    N141     N        0.21582    0.12384    0.51266    1.000
    Si142    Si       0.10031    0.12436    0.62314    1.000
    N143     N        0.08029    0.08687    0.63291    1.000
    Si144    Si       0.03722    0.08640    0.63445    1.000
    N145     N        0.04270    0.09639    0.70884    1.000
    N146     N        0.02100    0.12443    0.64092    1.000
    Si147    Si       0.16061    0.09641    0.66473    1.000
    Si148    Si       0.14645    0.10788    0.73551    1.000
    N149     N        0.20074    0.11361    0.66675    1.000
    N150     N        0.14360    0.08230    0.70119    1.000
    N151     N        0.13215    0.12770    0.65272    1.000
    Si152    Si       0.00907    0.11498    0.86018    1.000
    Si153    Si       0.10873    0.09723    0.79897    1.000
    Si154    Si       0.00566    0.11263    0.78147    1.000
    N155     N        0.01181    0.07164    0.86211    1.000
    N156     N        0.08505    0.12505    0.82403    1.000
    N157     N        0.01877    0.07166    0.78435    1.000
    Si158    Si       0.21059    0.12055    0.77584    1.000
    N159     N        0.18196    0.09271    0.75426    1.000
    Si160    Si       0.18208    0.08039    0.82943    1.000
    N161     N        0.13930    0.07367    0.82209    1.000
    N162     N        0.12057    0.12043    0.76679    1.000
    N163     N        0.19686    0.12103    0.81764    1.000
    N164     N        0.00741    0.07371    0.92786    1.000
    N165     N        0.05715    0.11106    0.95359    1.000
    Si166    Si       0.04845    0.07004    0.94405    1.000
    N167     N        0.11453    0.10458    0.88525    1.000
    N168     N        0.00076    0.08785    0.99521    1.000
    N169     N        0.11802    0.11306    0.98445    1.000
    Si170    Si       0.14687    0.09246    0.95938    1.000
    N171     N        0.18318    0.08603    0.87336    1.000
    N172     N        0.23476    0.10170    0.92329    1.000
    N173     N        0.16683    0.07243    0.99094    1.000
    Si174    Si       0.21751    0.07167    0.89671    1.000
    N175     N        0.16926    0.11749    0.93142    1.000
    Si176    Si       0.15654    0.11756    0.88858    1.000
    N177     N        0.21294    0.12176    0.98441    1.000
    N178     N        0.07040    0.15190    0.08280    1.000
    N179     N        0.01168    0.17186    0.10983    1.000
    N180     N        0.07085    0.17145    0.00221    1.000
    Si181    Si       0.08283    0.12540    0.11558    1.000
    N182     N        0.13035    0.16835    0.04869    1.000
    N183     N        0.18445    0.15041    0.08637    1.000
    Si184    Si       0.14470    0.13478    0.07395    1.000
    Si185    Si       0.21362    0.17786    0.06554    1.000
    N186     N        0.23513    0.15319    0.03942    1.000
    N187     N        0.12655    0.12709    0.11461    1.000
    Si188    Si       0.06799    0.17643    0.16828    1.000
    Si189    Si       0.02559    0.16129    0.22369    1.000
    N190     N        0.06794    0.13545    0.15504    1.000
    N191     N        0.02890    0.18043    0.18501    1.000
    N192     N        0.05991    0.17067    0.24765    1.000
    N193     N        0.15705    0.17885    0.14803    1.000
    N194     N        0.22436    0.16324    0.14117    1.000
    N195     N        0.18070    0.16860    0.21633    1.000
    Si196    Si       0.14473    0.17940    0.19008    1.000
    N197     N        0.13473    0.13232    0.19021    1.000
    Si198    Si       0.18373    0.15160    0.12825    1.000
    Si199    Si       0.18685    0.12838    0.19691    1.000
    N200     N        0.03825    0.15632    0.35191    1.000
    N201     N        0.09084    0.15493    0.31118    1.000
    Si202    Si       0.07972    0.13980    0.27081    1.000
    N203     N        0.20376    0.17178    0.36217    1.000
    Si204    Si       0.13308    0.16459    0.30400    1.000
    N205     N        0.17892    0.17413    0.29871    1.000
    Si206    Si       0.19115    0.14356    0.32809    1.000
    N207     N        0.22291    0.13867    0.26509    1.000
    N208     N        0.12110    0.16149    0.25864    1.000
    Si209    Si       0.20070    0.17538    0.25584    1.000
    N210     N        0.14895    0.13043    0.33007    1.000
    Si211    Si       0.05381    0.18576    0.42952    1.000
    N212     N        0.04896    0.14450    0.41779    1.000
    Si213    Si       0.02454    0.12998    0.38490    1.000
    N214     N        0.11401    0.16840    0.47434    1.000
    Si215    Si       0.19446    0.16670    0.40272    1.000
    N216     N        0.14929    0.16362    0.41034    1.000
    N217     N        0.01132    0.16064    0.52059    1.000
    Si218    Si       0.01582    0.15935    0.56371    1.000
    Si219    Si       0.07693    0.16990    0.58361    1.000
    N220     N        0.05125    0.13219    0.57340    1.000
    N221     N        0.08980    0.18022    0.53958    1.000
    N222     N        0.12226    0.14190    0.58759    1.000
    Si223    Si       0.12351    0.15365    0.54457    1.000
    N224     N        0.16739    0.16365    0.54587    1.000
    Si225    Si       0.16744    0.14326    0.59204    1.000
    Si226    Si       0.23818    0.16056    0.50352    1.000
    Si227    Si       0.99329    0.17506    0.73164    1.000
    N228     N        0.08916    0.14841    0.71683    1.000
    Si229    Si       0.03287    0.16310    0.65969    1.000
    N230     N        0.07543    0.15966    0.63669    1.000
    N231     N        0.02400    0.16482    0.70318    1.000
    Si232    Si       0.04863    0.13608    0.72567    1.000
    N233     N        0.99544    0.18176    0.63903    1.000
    Si234    Si       0.12002    0.15229    0.68556    1.000
    N235     N        0.18963    0.16411    0.62189    1.000
    Si236    Si       0.17961    0.17388    0.73319    1.000
    N237     N        0.15070    0.14599    0.71578    1.000
    Si238    Si       0.20614    0.15774    0.66290    1.000
    Si239    Si       0.06576    0.15670    0.79965    1.000
    Si240    Si       0.00171    0.17469    0.81262    1.000
    N241     N        0.00188    0.13147    0.82071    1.000
    Si242    Si       0.08434    0.13041    0.86650    1.000
    N243     N        0.04554    0.13462    0.77057    1.000
    N244     N        0.08851    0.18301    0.77460    1.000
    Si245    Si       0.20153    0.15354    0.84380    1.000
    N246     N        0.21344    0.15781    0.75250    1.000
    N247     N        0.16599    0.15662    0.87167    1.000
    N248     N        0.23801    0.15702    0.86946    1.000
    Si249    Si       0.11657    0.16166    0.75078    1.000
    N250     N        0.15232    0.18407    0.76520    1.000
    N251     N        0.09964    0.17108    0.87727    1.000
    Si252    Si       0.07837    0.13037    0.98695    1.000
    N253     N        0.06587    0.17668    0.93767    1.000
    N254     N        0.00104    0.14223    0.94419    1.000
    N255     N        0.04238    0.13011    0.88312    1.000
    Si256    Si       0.04342    0.14001    0.92529    1.000
    N257     N        0.21062    0.17568    0.93603    1.000
    Si258    Si       0.20638    0.13323    0.94226    1.000
    Si259    Si       0.23111    0.18771    0.90044    1.000
    N260     N        0.06400    0.21119    0.06275    1.000
    Si261    Si       0.09233    0.19001    0.03909    1.000
    Si262    Si       0.04945    0.18704    0.09549    1.000
    N263     N        0.11870    0.22236    0.01978    1.000
    Si264    Si       0.15546    0.20046    0.02832    1.000
    N265     N        0.18551    0.21314    0.05787    1.000
    N266     N        0.06283    0.20611    0.13396    1.000
    N267     N        0.10369    0.23515    0.23868    1.000
    Si268    Si       0.09634    0.19158    0.23703    1.000
    Si269    Si       0.00227    0.18786    0.15331    1.000
    N270     N        0.10025    0.18639    0.19425    1.000
    N271     N        0.20186    0.22527    0.12399    1.000
    N272     N        0.15570    0.22569    0.18832    1.000
    Si273    Si       0.16493    0.22235    0.14505    1.000
    N274     N        0.22658    0.24730    0.21137    1.000
    Si275    Si       0.18341    0.24361    0.22096    1.000
    N276     N        0.07521    0.22115    0.35748    1.000
    N277     N        0.00999    0.21414    0.33043    1.000
    Si278    Si       0.03810    0.19760    0.36043    1.000
    Si279    Si       0.09888    0.23817    0.32472    1.000
    N280     N        0.12971    0.21038    0.31250    1.000
    Si281    Si       0.17069    0.22033    0.29953    1.000
    N282     N        0.18064    0.22215    0.25753    1.000
    N283     N        0.19352    0.24286    0.32591    1.000
    N284     N        0.02451    0.20595    0.40158    1.000
    N285     N        0.09235    0.20461    0.42085    1.000
    Si286    Si       0.09023    0.23876    0.39363    1.000
    N287     N        0.09662    0.23489    0.49022    1.000
    N288     N        0.04879    0.19104    0.47330    1.000
    Si289    Si       0.00947    0.19052    0.48932    1.000
    Si290    Si       0.12840    0.18873    0.43752    1.000
    Si291    Si       0.19927    0.21545    0.46405    1.000
    N292     N        0.21418    0.19281    0.42974    1.000
    N293     N        0.15585    0.22177    0.45363    1.000
    N294     N        0.09395    0.20868    0.59999    1.000
    Si295    Si       0.06693    0.23363    0.57210    1.000
    N296     N        0.03713    0.19251    0.58347    1.000
    Si297    Si       0.02678    0.21104    0.62276    1.000
    N298     N        0.04284    0.24400    0.53244    1.000
    Si299    Si       0.08561    0.19239    0.49697    1.000
    N300     N        0.15310    0.23202    0.52284    1.000
    Si301    Si       0.18461    0.20270    0.53453    1.000
    N302     N        0.20123    0.21404    0.57439    1.000
    N303     N        0.20978    0.19224    0.50035    1.000
    Si304    Si       0.19964    0.20595    0.61611    1.000
    N305     N        0.04913    0.20905    0.66027    1.000
    Si306    Si       0.09255    0.20548    0.64345    1.000
    N307     N        0.07934    0.23603    0.72168    1.000
    Si308    Si       0.04449    0.23807    0.69492    1.000
    N309     N        0.00891    0.23721    0.72112    1.000
    N310     N        0.14478    0.24126    0.71290    1.000
    N311     N        0.19097    0.18850    0.69225    1.000
    N312     N        0.12257    0.19272    0.67375    1.000
    N313     N        0.16942    0.22861    0.63952    1.000
    Si314    Si       0.15894    0.21603    0.68011    1.000
    Si315    Si       0.04651    0.22804    0.82678    1.000
    Si316    Si       0.08308    0.22693    0.76413    1.000
    Si317    Si       0.00740    0.23548    0.76420    1.000
    N318     N        0.99941    0.19183    0.77176    1.000
    N319     N        0.04591    0.23901    0.78421    1.000
    N320     N        0.04240    0.18597    0.82340    1.000
    Si321    Si       0.22570    0.22260    0.84047    1.000
    N322     N        0.14468    0.21641    0.83487    1.000
    Si323    Si       0.16876    0.20544    0.79989    1.000
    N324     N        0.20356    0.19125    0.82287    1.000
    Si325    Si       0.13792    0.18940    0.86917    1.000
    N326     N        0.18472    0.24269    0.77654    1.000
    N327     N        0.99043    0.19606    0.90199    1.000
    Si328    Si       0.01529    0.23366    0.89351    1.000
    Si329    Si       0.08707    0.19882    0.90824    1.000
    N330     N        0.05700    0.23009    0.90070    1.000
    N331     N        0.01145    0.20621    0.97066    1.000
    Si332    Si       0.05487    0.20063    0.97255    1.000
    N333     N        0.06794    0.24433    0.97627    1.000
    Si334    Si       0.99017    0.23755    0.99305    1.000
    N335     N        0.12943    0.21535    0.90603    1.000
    N336     N        0.21309    0.22331    0.88203    1.000
    N337     N        0.18001    0.20052    0.99288    1.000
    Si338    Si       0.21269    0.21034    0.96782    1.000
    N339     N        0.06148    0.28162    0.03750    1.000
    N340     N        0.08049    0.26427    0.10223    1.000
    Si341    Si       0.05562    0.25323    0.06955    1.000
    N342     N        0.01728    0.25543    0.08796    1.000
    N343     N        0.11225    0.29579    0.00555    1.000
    Si344    Si       0.11671    0.28479    0.10865    1.000
    N345     N        0.20243    0.28258    0.07398    1.000
    N346     N        0.14773    0.25303    0.11660    1.000
    Si347    Si       0.18290    0.24605    0.08879    1.000
    N348     N        0.13004    0.30453    0.07055    1.000
    Si349    Si       0.06986    0.24779    0.14073    1.000
    Si350    Si       0.05875    0.28660    0.19142    1.000
    Si351    Si       0.00342    0.26509    0.12995    1.000
    N352     N        0.03673    0.27736    0.15469    1.000
    N353     N        0.09280    0.25664    0.17605    1.000
    N354     N        0.04372    0.27569    0.23132    1.000
    Si355    Si       0.12505    0.25269    0.20529    1.000
    N356     N        0.15556    0.27804    0.22110    1.000
    N357     N        0.23247    0.29151    0.15375    1.000
    N358     N        0.01368    0.28007    0.33939    1.000
    Si359    Si       0.07624    0.26283    0.25749    1.000
    N360     N        0.99848    0.25610    0.27706    1.000
    Si361    Si       0.01057    0.29043    0.25525    1.000
    Si362    Si       0.02471    0.25004    0.31160    1.000
    N363     N        0.11304    0.28019    0.33343    1.000
    N364     N        0.06557    0.24623    0.29590    1.000
    Si365    Si       0.04050    0.29811    0.36971    1.000
    N366     N        0.23560    0.26658    0.27812    1.000
    Si367    Si       0.20027    0.27269    0.35921    1.000
    Si368    Si       0.23616    0.24479    0.31521    1.000
    N369     N        0.07662    0.28282    0.39158    1.000
    N370     N        0.04200    0.27949    0.46237    1.000
    Si371    Si       0.05605    0.30253    0.42688    1.000
    Si372    Si       0.00808    0.30515    0.47501    1.000
    Si373    Si       0.16044    0.25697    0.42389    1.000
    Si374    Si       0.11785    0.29039    0.37624    1.000
    N375     N        0.13912    0.28088    0.45814    1.000
    N376     N        0.19588    0.26000    0.40037    1.000
    N377     N        0.21194    0.25683    0.46397    1.000
    Si378    Si       0.22258    0.28010    0.42834    1.000
    N379     N        0.13243    0.25114    0.39214    1.000
    Si380    Si       0.13737    0.24683    0.48363    1.000
    Si381    Si       0.01619    0.28493    0.59801    1.000
    N382     N        0.09832    0.26716    0.56460    1.000
    N383     N        0.04439    0.25124    0.60820    1.000
    Si384    Si       0.99895    0.25534    0.53030    1.000
    N385     N        0.07978    0.30054    0.51024    1.000
    N386     N        0.99284    0.29431    0.51356    1.000
    Si387    Si       0.06256    0.26199    0.49818    1.000
    N388     N        0.21190    0.26544    0.53529    1.000
    N389     N        0.16074    0.26544    0.58888    1.000
    Si390    Si       0.20099    0.25749    0.57438    1.000
    Si391    Si       0.14065    0.26198    0.55183    1.000
    N392     N        0.22648    0.28055    0.59951    1.000
    Si393    Si       0.22499    0.28111    0.49755    1.000
    N394     N        0.14281    0.30318    0.53754    1.000
    N395     N        0.99276    0.28858    0.63527    1.000
    Si396    Si       0.07289    0.27682    0.63308    1.000
    N397     N        0.04744    0.27554    0.67474    1.000
    N398     N        0.10478    0.24910    0.65346    1.000
    Si399    Si       0.10828    0.25889    0.69730    1.000
    Si400    Si       0.14301    0.26618    0.63144    1.000
    N401     N        0.23141    0.28311    0.66645    1.000
    N402     N        0.16375    0.29182    0.66486    1.000
    N403     N        0.22381    0.28270    0.74156    1.000
    Si404    Si       0.00403    0.28218    0.82818    1.000
    N405     N        0.08039    0.24876    0.84279    1.000
    N406     N        0.01186    0.24418    0.85126    1.000
    N407     N        0.11712    0.24828    0.78153    1.000
    Si408    Si       0.12092    0.25290    0.82490    1.000
    N409     N        0.12832    0.29290    0.83865    1.000
    Si410    Si       0.22757    0.25236    0.77228    1.000
    Si411    Si       0.23093    0.29306    0.84418    1.000
    Si412    Si       0.15051    0.25954    0.75417    1.000
    N413     N        0.23609    0.25873    0.81604    1.000
    N414     N        0.15642    0.30042    0.74991    1.000
    Si415    Si       0.07369    0.26700    0.88198    1.000
    N416     N        0.99965    0.26832    0.91255    1.000
    N417     N        0.10262    0.27924    0.91146    1.000
    N418     N        0.01008    0.27579    0.99131    1.000
    Si419    Si       0.10854    0.25297    0.99356    1.000
    Si420    Si       0.05231    0.28365    0.99202    1.000
    Si421    Si       0.02468    0.30221    0.92212    1.000
    N422     N        0.04903    0.30253    0.88605    1.000
    N423     N        0.13926    0.25924    0.96317    1.000
    Si424    Si       0.21991    0.27987    0.97746    1.000
    N425     N        0.16987    0.27548    0.89586    1.000
    N426     N        0.23559    0.28989    0.88796    1.000
    Si427    Si       0.20972    0.25916    0.90480    1.000
    N428     N        0.21085    0.24931    0.94793    1.000
    Si429    Si       0.14679    0.30112    0.97931    1.000
    Si430    Si       0.13809    0.25492    0.92034    1.000
    N431     N        0.02548    0.33568    0.00931    1.000
    N432     N        0.02087    0.34849    0.08310    1.000
    N433     N        0.08144    0.35006    0.05015    1.000
    Si434    Si       0.09654    0.30912    0.04286    1.000
    Si435    Si       0.03881    0.35705    0.04429    1.000
    Si436    Si       0.98942    0.30953    0.01125    1.000
    Si437    Si       0.17399    0.31695    0.07780    1.000
    N438     N        0.19161    0.35468    0.06398    1.000
    Si439    Si       0.23195    0.35835    0.04395    1.000
    N440     N        0.16733    0.32412    0.12120    1.000
    N441     N        0.23509    0.34274    0.11968    1.000
    N442     N        0.10425    0.31996    0.13173    1.000
    Si443    Si       0.08400    0.34549    0.16089    1.000
    N444     N        0.07837    0.32535    0.19918    1.000
    Si445    Si       0.09036    0.33536    0.23790    1.000
    N446     N        0.04323    0.35876    0.14979    1.000
    N447     N        0.20479    0.35433    0.17414    1.000
    N448     N        0.13257    0.34416    0.23237    1.000
    Si449    Si       0.20762    0.35776    0.21804    1.000
    Si450    Si       0.16304    0.31376    0.24569    1.000
    Si451    Si       0.20348    0.32112    0.14538    1.000
    Si452    Si       0.13399    0.35216    0.12637    1.000
    N453     N        0.20446    0.32159    0.23933    1.000
    N454     N        0.01694    0.32350    0.28232    1.000
    N455     N        0.04393    0.33301    0.34433    1.000
    Si456    Si       0.00499    0.32197    0.32427    1.000
    N457     N        0.10933    0.35037    0.32593    1.000
    N458     N        0.09315    0.30320    0.26620    1.000
    Si459    Si       0.07340    0.36371    0.34592    1.000
    Si460    Si       0.11675    0.31255    0.30413    1.000
    Si461    Si       0.18810    0.32942    0.31565    1.000
    N462     N        0.22989    0.32598    0.30340    1.000
    N463     N        0.18374    0.31146    0.35532    1.000
    N464     N        0.15840    0.31224    0.29024    1.000
    Si465    Si       0.23940    0.30791    0.26457    1.000
    N466     N        0.08419    0.32861    0.44680    1.000
    Si467    Si       0.07120    0.33538    0.48784    1.000
    N468     N        0.02086    0.31435    0.40503    1.000
    N469     N        0.02788    0.34069    0.49325    1.000
    N470     N        0.13698    0.32201    0.39854    1.000
    Si471    Si       0.19510    0.34375    0.46511    1.000
    Si472    Si       0.17830    0.33004    0.39437    1.000
    N473     N        0.15094    0.35207    0.46360    1.000
    N474     N        0.20019    0.31701    0.43157    1.000
    Si475    Si       0.12752    0.32168    0.44211    1.000
    N476     N        0.08808    0.34063    0.57005    1.000
    Si477    Si       0.04483    0.34735    0.59770    1.000
    Si478    Si       0.00652    0.33304    0.53175    1.000
    N479     N        0.02358    0.31652    0.56716    1.000
    Si480    Si       0.10641    0.34562    0.60971    1.000
    Si481    Si       0.09993    0.30761    0.54608    1.000
    Si482    Si       0.22630    0.32432    0.59895    1.000
    Si483    Si       0.18007    0.32678    0.53432    1.000
    N484     N        0.20933    0.34172    0.56310    1.000
    N485     N        0.20317    0.31893    0.49897    1.000
    N486     N        0.04802    0.31105    0.62333    1.000
    Si487    Si       0.00135    0.34829    0.72002    1.000
    N488     N        0.01141    0.34519    0.67804    1.000
    Si489    Si       0.02150    0.30823    0.65880    1.000
    N490     N        0.11210    0.30603    0.63042    1.000
    N491     N        0.02928    0.32974    0.74430    1.000
    N492     N        0.10814    0.30237    0.70320    1.000
    N493     N        0.20153    0.33946    0.62982    1.000
    N494     N        0.14444    0.35748    0.66366    1.000
    Si495    Si       0.19688    0.31727    0.74330    1.000
    Si496    Si       0.11836    0.32235    0.74054    1.000
    Si497    Si       0.20162    0.31420    0.66572    1.000
    Si498    Si       0.12958    0.31656    0.66765    1.000
    N499     N        0.21090    0.33255    0.70390    1.000
    Si500    Si       0.05071    0.33473    0.78187    1.000
    N501     N        0.09276    0.32422    0.77760    1.000
    N502     N        0.09636    0.35362    0.84305    1.000
    N503     N        0.03314    0.30883    0.81228    1.000
    Si504    Si       0.11571    0.32768    0.81558    1.000
    N505     N        0.21061    0.34619    0.77275    1.000
    Si506    Si       0.19303    0.34208    0.81233    1.000
    N507     N        0.15171    0.34867    0.80264    1.000
    N508     N        0.19118    0.30683    0.83770    1.000
    Si509    Si       0.15963    0.30748    0.86663    1.000
    Si510    Si       0.06882    0.34099    0.87368    1.000
    Si511    Si       0.09455    0.31428    0.93423    1.000
    Si512    Si       0.04025    0.35303    0.97068    1.000
    N513     N        0.05538    0.31307    0.95524    1.000
    N514     N        0.08752    0.35160    0.91080    1.000
    N515     N        0.99879    0.33657    0.91933    1.000
    Si516    Si       0.99655    0.36198    0.88318    1.000
    N517     N        0.23672    0.31241    0.95379    1.000
    N518     N        0.13246    0.32929    0.95029    1.000
    N519     N        0.16046    0.34915    0.88437    1.000
    Si520    Si       0.14954    0.36004    0.92574    1.000
    Si521    Si       0.21020    0.34088    0.97439    1.000
    N522     N        0.18717    0.30638    0.99087    1.000
    N523     N        0.03685    0.39848    0.02948    1.000
    Si524    Si       0.09887    0.38650    0.06706    1.000
    Si525    Si       0.03847    0.37697    0.10994    1.000
    N526     N        0.06951    0.40490    0.09507    1.000
    N527     N        0.00759    0.40996    0.11011    1.000
    Si528    Si       0.07245    0.40953    0.00528    1.000
    N529     N        0.10741    0.41341    0.03212    1.000
    Si530    Si       0.17616    0.38896    0.08306    1.000
    N531     N        0.13442    0.37784    0.08920    1.000
    N532     N        0.22243    0.37231    0.00417    1.000
    N533     N        0.18852    0.39618    0.12331    1.000
    N534     N        0.00413    0.40801    0.17439    1.000
    Si535    Si       0.00878    0.36507    0.17530    1.000
    N536     N        0.10927    0.41010    0.21844    1.000
    N537     N        0.01061    0.36107    0.21904    1.000
    N538     N        0.11311    0.37740    0.15759    1.000
    Si539    Si       0.22272    0.37815    0.14140    1.000
    Si540    Si       0.13792    0.38665    0.24077    1.000
    Si541    Si       0.11599    0.41652    0.17599    1.000
    N542     N        0.18164    0.39148    0.22940    1.000
    N543     N        0.00680    0.39636    0.27969    1.000
    Si544    Si       0.08183    0.39860    0.28368    1.000
    N545     N        0.06161    0.39864    0.32111    1.000
    Si546    Si       0.02331    0.41669    0.31706    1.000
    N547     N        0.99417    0.41152    0.34938    1.000
    N548     N        0.06705    0.36865    0.25678    1.000
    Si549    Si       0.02476    0.36099    0.25996    1.000
    N550     N        0.17972    0.37148    0.31479    1.000
    N551     N        0.12444    0.39482    0.28096    1.000
    Si552    Si       0.20831    0.40308    0.31068    1.000
    Si553    Si       0.13868    0.38236    0.31939    1.000
    N554     N        0.13663    0.41341    0.34640    1.000
    N555     N        0.23371    0.40319    0.27669    1.000
    N556     N        0.23547    0.39827    0.34530    1.000
    N557     N        0.08378    0.38090    0.38439    1.000
    Si558    Si       0.10936    0.41638    0.38220    1.000
    N559     N        0.03367    0.41319    0.45762    1.000
    Si560    Si       0.99421    0.41811    0.47425    1.000
    N561     N        0.22394    0.37389    0.46906    1.000
    N562     N        0.13800    0.41780    0.41466    1.000
    Si563    Si       0.13235    0.37490    0.49294    1.000
    N564     N        0.12837    0.41877    0.48562    1.000
    Si565    Si       0.17952    0.41368    0.40571    1.000
    N566     N        0.19322    0.37263    0.39443    1.000
    Si567    Si       0.23416    0.37323    0.37912    1.000
    Si568    Si       0.23858    0.40433    0.44399    1.000
    N569     N        0.04402    0.39007    0.55315    1.000
    Si570    Si       0.08341    0.37866    0.54838    1.000
    N571     N        0.09301    0.36600    0.50760    1.000
    N572     N        0.11366    0.41246    0.55699    1.000
    N573     N        0.07417    0.36899    0.62487    1.000
    N574     N        0.00484    0.36321    0.61276    1.000
    Si575    Si       0.14914    0.38770    0.56268    1.000
    Si576    Si       0.22336    0.38368    0.56327    1.000
    N577     N        0.18774    0.40704    0.56767    1.000
    N578     N        0.15759    0.36515    0.52774    1.000
    N579     N        0.14278    0.36573    0.59801    1.000
    N580     N        0.09531    0.40369    0.68636    1.000
    Si581    Si       0.07580    0.40574    0.64637    1.000
    Si582    Si       0.00508    0.38035    0.65218    1.000
    N583     N        0.00945    0.39171    0.72410    1.000
    N584     N        0.03360    0.41454    0.65210    1.000
    Si585    Si       0.17142    0.37048    0.63164    1.000
    N586     N        0.24097    0.39043    0.72286    1.000
    Si587    Si       0.13530    0.38424    0.69541    1.000
    N588     N        0.16923    0.41177    0.69870    1.000
    N589     N        0.18408    0.41240    0.63623    1.000
    N590     N        0.13266    0.36307    0.73329    1.000
    Si591    Si       0.03544    0.39558    0.83190    1.000
    N592     N        0.04435    0.37699    0.79257    1.000
    Si593    Si       0.03112    0.40237    0.76149    1.000
    Si594    Si       0.10538    0.39550    0.83382    1.000
    N595     N        0.00039    0.41833    0.84422    1.000
    N596     N        0.03592    0.36701    0.86495    1.000
    N597     N        0.11231    0.40194    0.79147    1.000
    N598     N        0.07030    0.42080    0.84444    1.000
    N599     N        0.14182    0.41060    0.85258    1.000
    Si600    Si       0.21893    0.38724    0.76161    1.000
    N601     N        0.20529    0.37575    0.83875    1.000
    Si602    Si       0.14318    0.37739    0.77283    1.000
    N603     N        0.17830    0.40250    0.76539    1.000
    Si604    Si       0.17525    0.38788    0.86760    1.000
    N605     N        0.07353    0.38046    0.97181    1.000
    Si606    Si       0.09131    0.39068    0.93283    1.000
    N607     N        0.01000    0.38270    0.96133    1.000
    Si608    Si       0.21462    0.41325    0.99048    1.000
    N609     N        0.19711    0.41358    0.89324    1.000
    N610     N        0.13345    0.39996    0.93259    1.000
    N611     N        0.23383    0.41609    0.95065    1.000
    Si612    Si       0.21767    0.38800    0.92225    1.000
    N613     N        0.19014    0.36322    0.94374    1.000
    N614     N        0.02439    0.46125    0.06364    1.000
    Si615    Si       0.05034    0.44678    0.09721    1.000
    Si616    Si       0.00738    0.43109    0.03402    1.000
    N617     N        0.09067    0.47115    0.08981    1.000
    Si618    Si       0.17242    0.46433    0.07559    1.000
    Si619    Si       0.13725    0.44048    0.01735    1.000
    N620     N        0.15170    0.45294    0.11269    1.000
    N621     N        0.14346    0.47498    0.04611    1.000
    N622     N        0.19004    0.42820    0.06255    1.000
    Si623    Si       0.23498    0.43009    0.05510    1.000
    Si624    Si       0.11429    0.47000    0.12649    1.000
    N625     N        0.09507    0.44951    0.15914    1.000
    N626     N        0.04638    0.45013    0.20752    1.000
    Si627    Si       0.08278    0.44303    0.22901    1.000
    N628     N        0.03155    0.46719    0.13446    1.000
    Si629    Si       0.05785    0.47095    0.17044    1.000
    Si630    Si       0.99643    0.43615    0.14298    1.000
    Si631    Si       0.00488    0.43614    0.20564    1.000
    N632     N        0.10418    0.48044    0.22371    1.000
    N633     N        0.22957    0.43210    0.20500    1.000
    Si634    Si       0.18010    0.43479    0.13867    1.000
    N635     N        0.17536    0.46198    0.23373    1.000
    N636     N        0.21792    0.45409    0.14030    1.000
    N637     N        0.15916    0.43170    0.17729    1.000
    Si638    Si       0.18708    0.42955    0.20868    1.000
    N639     N        0.07417    0.43954    0.27319    1.000
    N640     N        0.02877    0.46000    0.32490    1.000
    Si641    Si       0.05848    0.47296    0.29513    1.000
    Si642    Si       0.01072    0.47796    0.36307    1.000
    Si643    Si       0.16137    0.44833    0.34245    1.000
    N644     N        0.18387    0.43902    0.30492    1.000
    Si645    Si       0.18055    0.47040    0.27627    1.000
    N646     N        0.08746    0.45124    0.37136    1.000
    N647     N        0.08636    0.45571    0.44021    1.000
    Si648    Si       0.05728    0.44572    0.47039    1.000
    N649     N        0.02385    0.47184    0.40416    1.000
    Si650    Si       0.06883    0.47576    0.40546    1.000
    Si651    Si       0.12798    0.44074    0.44855    1.000
    Si652    Si       0.22104    0.47034    0.38419    1.000
    N653     N        0.20631    0.43175    0.43647    1.000
    N654     N        0.18825    0.44280    0.37468    1.000
    N655     N        0.15839    0.46962    0.45614    1.000
    Si656    Si       0.20415    0.47331    0.45427    1.000
    N657     N        0.01957    0.45361    0.57379    1.000
    N658     N        0.06617    0.43951    0.51326    1.000
    Si659    Si       0.10833    0.43706    0.51960    1.000
    N660     N        0.99758    0.43715    0.51346    1.000
    Si661    Si       0.03189    0.43014    0.53961    1.000
    N662     N        0.08492    0.47781    0.57253    1.000
    Si663    Si       0.11522    0.44799    0.58626    1.000
    N664     N        0.22691    0.45430    0.60045    1.000
    N665     N        0.15661    0.46519    0.59526    1.000
    Si666    Si       0.18909    0.43538    0.60000    1.000
    N667     N        0.12485    0.47581    0.52186    1.000
    N668     N        0.10423    0.43393    0.62663    1.000
    Si669    Si       0.08706    0.43817    0.71174    1.000
    Si670    Si       0.01670    0.45575    0.65372    1.000
    N671     N        0.00089    0.45636    0.69378    1.000
    N672     N        0.08702    0.47100    0.68491    1.000
    Si673    Si       0.11689    0.46677    0.65200    1.000
    N674     N        0.18489    0.46824    0.73990    1.000
    N675     N        0.12173    0.44229    0.73878    1.000
    N676     N        0.15827    0.47068    0.66574    1.000
    Si677    Si       0.18699    0.43990    0.67034    1.000
    Si678    Si       0.16465    0.42986    0.73628    1.000
    N679     N        0.22441    0.46603    0.67594    1.000
    N680     N        0.01195    0.43494    0.78471    1.000
    Si681    Si       0.04377    0.46314    0.76949    1.000
    Si682    Si       0.10694    0.44322    0.77884    1.000
    Si683    Si       0.99651    0.45484    0.82314    1.000
    N684     N        0.10612    0.47147    0.86815    1.000
    N685     N        0.06093    0.43049    0.74561    1.000
    Si686    Si       0.14212    0.45431    0.84615    1.000
    N687     N        0.13912    0.46275    0.80385    1.000
    N688     N        0.17961    0.47035    0.86082    1.000
    N689     N        0.03760    0.47664    0.88101    1.000
    Si690    Si       0.07073    0.44821    0.87701    1.000
    Si691    Si       0.01596    0.42635    0.96618    1.000
    N692     N        0.05248    0.44369    0.98534    1.000
    N693     N        0.00120    0.44701    0.93075    1.000
    Si694    Si       0.07949    0.47637    0.98196    1.000
    N695     N        0.07261    0.42453    0.91418    1.000
    Si696    Si       0.19403    0.45672    0.89930    1.000
    N697     N        0.17273    0.42474    0.99237    1.000
    Si698    Si       0.14844    0.43553    0.95458    1.000
    N699     N        0.11688    0.45350    0.97973    1.000
    N700     N        0.17395    0.46518    0.93649    1.000
    N701     N        0.08347    0.50029    0.01936    1.000
    Si702    Si       0.00741    0.50195    0.07195    1.000
    N703     N        0.03489    0.53779    0.06606    1.000
    Si704    Si       0.10622    0.49532    0.05574    1.000
    N705     N        0.20429    0.49550    0.08589    1.000
    Si706    Si       0.21907    0.53247    0.06653    1.000
    N707     N        0.11447    0.53717    0.07245    1.000
    Si708    Si       0.23651    0.47913    0.11063    1.000
    Si709    Si       0.99958    0.49972    0.14754    1.000
    Si710    Si       0.07172    0.50985    0.22974    1.000
    N711     N        0.05881    0.51388    0.18629    1.000
    N712     N        0.12275    0.50914    0.14318    1.000
    Si713    Si       0.13744    0.53757    0.17237    1.000
    N714     N        0.16204    0.52737    0.20598    1.000
    Si715    Si       0.14491    0.49395    0.23107    1.000
    N716     N        0.08234    0.50406    0.31699    1.000
    N717     N        0.04416    0.49837    0.26288    1.000
    N718     N        0.01963    0.51931    0.36056    1.000
    Si719    Si       0.01332    0.52752    0.27361    1.000
    Si720    Si       0.10328    0.48825    0.35292    1.000
    Si721    Si       0.05680    0.53234    0.33819    1.000
    Si722    Si       0.11118    0.52379    0.29007    1.000
    N723     N        0.09697    0.53943    0.25252    1.000
    N724     N        0.21496    0.49695    0.34859    1.000
    N725     N        0.14649    0.50016    0.27557    1.000
    Si726    Si       0.17724    0.52156    0.34417    1.000
    N727     N        0.21900    0.49302    0.27997    1.000
    N728     N        0.14585    0.49065    0.34353    1.000
    Si729    Si       0.22068    0.53697    0.28208    1.000
    N730     N        0.08509    0.51131    0.38576    1.000
    Si731    Si       0.05494    0.52266    0.48255    1.000
    N732     N        0.03500    0.48532    0.46831    1.000
    Si733    Si       0.00290    0.48379    0.43965    1.000
    N734     N        0.07881    0.53321    0.44740    1.000
    N735     N        0.21245    0.49564    0.41832    1.000
    N736     N        0.14047    0.52845    0.47882    1.000
    Si737    Si       0.15458    0.49010    0.49455    1.000
    N738     N        0.19721    0.50131    0.48974    1.000
    Si739    Si       0.10398    0.50632    0.54649    1.000
    N740     N        0.02588    0.52552    0.58343    1.000
    N741     N        0.07866    0.52715    0.51913    1.000
    Si742    Si       0.04528    0.48653    0.59044    1.000
    Si743    Si       0.24127    0.49874    0.50189    1.000
    N744     N        0.13775    0.52636    0.56888    1.000
    N745     N        0.20473    0.51622    0.57080    1.000
    Si746    Si       0.16625    0.50698    0.59236    1.000
    Si747    Si       0.23741    0.49148    0.58047    1.000
    N748     N        0.03778    0.51722    0.69445    1.000
    N749     N        0.10732    0.50653    0.63653    1.000
    Si750    Si       0.00448    0.49531    0.71190    1.000
    Si751    Si       0.06766    0.50562    0.66367    1.000
    N752     N        0.04464    0.48238    0.63424    1.000
    N753     N        0.19251    0.52241    0.69835    1.000
    Si754    Si       0.21318    0.48844    0.71378    1.000
    N755     N        0.17241    0.53037    0.62824    1.000
    Si756    Si       0.16256    0.51399    0.66790    1.000
    Si757    Si       0.02441    0.51142    0.85773    1.000
    N758     N        0.00989    0.49509    0.81854    1.000
    Si759    Si       0.00041    0.51818    0.78310    1.000
    N760     N        0.06307    0.53029    0.85706    1.000
    Si761    Si       0.10677    0.51009    0.80480    1.000
    N762     N        0.01705    0.49177    0.75297    1.000
    N763     N        0.98871    0.53589    0.86515    1.000
    Si764    Si       0.09995    0.51459    0.87323    1.000
    N765     N        0.07936    0.47637    0.79083    1.000
    Si766    Si       0.21224    0.48911    0.84076    1.000
    N767     N        0.13864    0.51724    0.77179    1.000
    N768     N        0.20195    0.49606    0.79897    1.000
    N769     N        0.22571    0.52799    0.85787    1.000
    N770     N        0.12367    0.52962    0.83879    1.000
    Si771    Si       0.23380    0.51530    0.77469    1.000
    Si772    Si       0.16661    0.48533    0.77649    1.000
    N773     N        0.00347    0.51320    0.93480    1.000
    N774     N        0.06711    0.49450    0.94525    1.000
    Si775    Si       0.08481    0.53436    0.93778    1.000
    Si776    Si       0.03020    0.48070    0.92311    1.000
    N777     N        0.11742    0.53418    0.91046    1.000
    N778     N        0.22781    0.51191    0.96755    1.000
    Si779    Si       0.22962    0.52344    0.90126    1.000
    Si780    Si       0.18736    0.50392    0.95280    1.000
    N781     N        0.15935    0.51963    0.98118    1.000
    N782     N        0.19005    0.53136    0.91722    1.000
    N783     N        0.23051    0.48043    0.89853    1.000
    Si784    Si       0.04714    0.56926    0.09418    1.000
    N785     N        0.07905    0.58134    0.03309    1.000
    N786     N        0.00513    0.56966    0.11101    1.000
    Si787    Si       0.00887    0.54773    0.03248    1.000
    Si788    Si       0.07139    0.54422    0.01032    1.000
    N789     N        0.98713    0.58334    0.04266    1.000
    Si790    Si       0.11512    0.54465    0.11506    1.000
    Si791    Si       0.11727    0.57636    0.05131    1.000
    N792     N        0.14581    0.57772    0.01996    1.000
    N793     N        0.19668    0.56890    0.06783    1.000
    Si794    Si       0.22239    0.58873    0.10067    1.000
    Si795    Si       0.18617    0.58931    0.03117    1.000
    N796     N        0.07333    0.55117    0.12445    1.000
    Si797    Si       0.00151    0.57622    0.15528    1.000
    Si798    Si       0.06793    0.55270    0.16723    1.000
    N799     N        0.10491    0.56343    0.19017    1.000
    N800     N        0.04104    0.58754    0.16925    1.000
    Si801    Si       0.11083    0.57714    0.23354    1.000
    N802     N        0.00910    0.55562    0.23888    1.000
    Si803    Si       0.02637    0.59409    0.24553    1.000
    N804     N        0.99238    0.53670    0.17152    1.000
    N805     N        0.06871    0.59854    0.23711    1.000
    Si806    Si       0.18074    0.58481    0.14738    1.000
    N807     N        0.17421    0.59005    0.18938    1.000
    N808     N        0.14185    0.56836    0.14021    1.000
    Si809    Si       0.18060    0.56465    0.22329    1.000
    N810     N        0.21856    0.56378    0.13949    1.000
    N811     N        0.07502    0.56478    0.36102    1.000
    N812     N        0.03753    0.55263    0.30261    1.000
    Si813    Si       0.10233    0.58926    0.33879    1.000
    Si814    Si       0.03650    0.59359    0.31686    1.000
    N815     N        0.01288    0.59087    0.35304    1.000
    N816     N        0.12227    0.56089    0.31096    1.000
    Si817    Si       0.15839    0.57849    0.29603    1.000
    N818     N        0.18751    0.54879    0.30841    1.000
    N819     N        0.15244    0.57814    0.25104    1.000
    N820     N        0.22000    0.55769    0.24404    1.000
    Si821    Si       0.00689    0.55748    0.37875    1.000
    Si822    Si       0.07797    0.54992    0.40658    1.000
    N823     N        0.03233    0.56593    0.41386    1.000
    Si824    Si       0.02016    0.58216    0.45326    1.000
    N825     N        0.02424    0.55326    0.48517    1.000
    N826     N        0.09056    0.58441    0.48546    1.000
    Si827    Si       0.11598    0.55897    0.45993    1.000
    N828     N        0.11763    0.57248    0.41708    1.000
    Si829    Si       0.15333    0.58148    0.39050    1.000
    N830     N        0.20597    0.55165    0.45129    1.000
    N831     N        0.15152    0.58890    0.47308    1.000
    Si832    Si       0.17911    0.54257    0.48257    1.000
    Si833    Si       0.23182    0.57025    0.48134    1.000
    N834     N        0.17212    0.54383    0.38068    1.000
    N835     N        0.23354    0.56722    0.39590    1.000
    Si836    Si       0.20470    0.53695    0.41103    1.000
    Si837    Si       0.04805    0.55593    0.60577    1.000
    Si838    Si       0.08630    0.57022    0.52645    1.000
    N839     N        0.08349    0.55624    0.57768    1.000
    N840     N        0.02448    0.59125    0.60162    1.000
    N841     N        0.18845    0.58166    0.58175    1.000
    N842     N        0.19811    0.56572    0.51394    1.000
    Si843    Si       0.21227    0.55688    0.55555    1.000
    N844     N        0.12903    0.58300    0.53891    1.000
    Si845    Si       0.12651    0.56729    0.57843    1.000
    Si846    Si       0.16320    0.59358    0.51541    1.000
    N847     N        0.12739    0.58178    0.62087    1.000
    N848     N        0.06609    0.55025    0.64644    1.000
    Si849    Si       0.03554    0.55721    0.67872    1.000
    N850     N        0.09494    0.56078    0.73370    1.000
    N851     N        0.99776    0.55972    0.65668    1.000
    Si852    Si       0.11045    0.54999    0.64495    1.000
    N853     N        0.03592    0.58318    0.71292    1.000
    Si854    Si       0.99173    0.59558    0.63027    1.000
    N855     N        0.21118    0.59581    0.70714    1.000
    Si856    Si       0.18724    0.57114    0.62551    1.000
    N857     N        0.23118    0.56816    0.64026    1.000
    Si858    Si       0.19541    0.55896    0.72140    1.000
    N859     N        0.15677    0.56978    0.73838    1.000
    Si860    Si       0.12776    0.57447    0.70942    1.000
    N861     N        0.13380    0.54320    0.68066    1.000
    Si862    Si       0.06880    0.56547    0.83101    1.000
    N863     N        0.01703    0.55719    0.77530    1.000
    N864     N        0.02938    0.58559    0.83522    1.000
    N865     N        0.08557    0.54878    0.79289    1.000
    Si866    Si       0.05619    0.56504    0.75277    1.000
    N867     N        0.09712    0.59876    0.84124    1.000
    Si868    Si       0.99160    0.57862    0.85698    1.000
    Si869    Si       0.01216    0.59767    0.79609    1.000
    Si870    Si       0.12464    0.55663    0.76847    1.000
    Si871    Si       0.18886    0.57838    0.78310    1.000
    N872     N        0.21610    0.58617    0.81901    1.000
    N873     N        0.14842    0.58290    0.79880    1.000
    Si874    Si       0.13347    0.57447    0.83727    1.000
    N875     N        0.21078    0.54939    0.76053    1.000
    N876     N        0.16320    0.57442    0.87011    1.000
    N877     N        0.05242    0.56349    0.93294    1.000
    Si878    Si       0.01752    0.54793    0.95510    1.000
    N879     N        0.09905    0.54868    0.97633    1.000
    N880     N        0.03054    0.54287    0.99563    1.000
    Si881    Si       0.23825    0.54326    0.99338    1.000
    N882     N        0.14628    0.58396    0.94300    1.000
    Si883    Si       0.15508    0.55679    0.90799    1.000
    Si884    Si       0.13893    0.55967    0.98063    1.000
    N885     N        0.21081    0.57954    0.99561    1.000
    Si886    Si       0.02279    0.63926    0.09597    1.000
    Si887    Si       0.09458    0.63148    0.10251    1.000
    N888     N        0.05598    0.61255    0.08976    1.000
    Si889    Si       0.06740    0.61779    0.01445    1.000
    N890     N        0.02485    0.62641    0.00278    1.000
    N891     N        0.18148    0.63158    0.04598    1.000
    Si892    Si       0.16453    0.62751    0.08486    1.000
    N893     N        0.12695    0.60824    0.08022    1.000
    N894     N        0.18862    0.61599    0.11850    1.000
    N895     N        0.00337    0.62302    0.22023    1.000
    Si896    Si       0.05262    0.63064    0.16594    1.000
    Si897    Si       0.08638    0.63531    0.22664    1.000
    N898     N        0.09495    0.62595    0.14512    1.000
    N899     N        0.02768    0.65211    0.13805    1.000
    Si900    Si       0.12036    0.59922    0.16942    1.000
    N901     N        0.20953    0.61981    0.23979    1.000
    Si902    Si       0.17193    0.62712    0.21367    1.000
    N903     N        0.12418    0.62121    0.20857    1.000
    N904     N        0.07661    0.61611    0.31648    1.000
    N905     N        0.01525    0.61084    0.28337    1.000
    Si906    Si       0.99435    0.63049    0.36424    1.000
    Si907    Si       0.99483    0.64813    0.28634    1.000
    N908     N        0.13649    0.60620    0.35891    1.000
    N909     N        0.17228    0.62152    0.30219    1.000
    Si910    Si       0.15884    0.64027    0.33908    1.000
    Si911    Si       0.19352    0.64342    0.27137    1.000
    N912     N        0.03531    0.62278    0.46010    1.000
    Si913    Si       0.07618    0.62504    0.47624    1.000
    N914     N        0.01687    0.64732    0.39842    1.000
    N915     N        0.10888    0.63654    0.44792    1.000
    Si916    Si       0.01186    0.65314    0.44076    1.000
    N917     N        0.17900    0.60661    0.41513    1.000
    Si918    Si       0.15252    0.62293    0.44674    1.000
    Si919    Si       0.22200    0.60442    0.41706    1.000
    Si920    Si       0.06576    0.64156    0.54815    1.000
    N921     N        0.02360    0.64492    0.55810    1.000
    Si922    Si       0.01954    0.60077    0.56088    1.000
    N923     N        0.05750    0.59914    0.53915    1.000
    N924     N        0.17975    0.63116    0.52869    1.000
    Si925    Si       0.18471    0.62376    0.57140    1.000
    N926     N        0.21400    0.64452    0.59404    1.000
    N927     N        0.14674    0.63972    0.58314    1.000
    Si928    Si       0.03398    0.62423    0.72843    1.000
    N929     N        0.99374    0.63603    0.73183    1.000
    N930     N        0.99393    0.63015    0.65934    1.000
    Si931    Si       0.21115    0.63318    0.73286    1.000
    N932     N        0.17838    0.61078    0.64171    1.000
    N933     N        0.12289    0.61175    0.68762    1.000
    Si934    Si       0.13559    0.61656    0.64455    1.000
    Si935    Si       0.20801    0.64093    0.63872    1.000
    N936     N        0.17459    0.65045    0.71518    1.000
    Si937    Si       0.13068    0.64549    0.71558    1.000
    Si938    Si       0.08080    0.63795    0.77098    1.000
    N939     N        0.00615    0.64473    0.79823    1.000
    N940     N        0.05188    0.60674    0.77118    1.000
    N941     N        0.04418    0.64559    0.86364    1.000
    Si942    Si       0.08553    0.63162    0.86985    1.000
    N943     N        0.12212    0.63345    0.75971    1.000
    N944     N        0.16836    0.63163    0.83639    1.000
    N945     N        0.19145    0.62082    0.77089    1.000
    Si946    Si       0.15254    0.63179    0.79189    1.000
    Si947    Si       0.22888    0.62234    0.79481    1.000
    Si948    Si       0.19575    0.60224    0.85505    1.000
    N949     N        0.08367    0.61777    0.97374    1.000
    N950     N        0.02698    0.62781    0.92975    1.000
    N951     N        0.09623    0.61714    0.90832    1.000
    Si952    Si       0.00959    0.63966    0.89143    1.000
    Si953    Si       0.06420    0.60410    0.93614    1.000
    Si954    Si       0.02220    0.65067    0.96747    1.000
    Si955    Si       0.13495    0.62489    0.93093    1.000
    N956     N        0.16675    0.63792    0.90392    1.000
    N957     N        0.22691    0.61736    0.88042    1.000
    N958     N        0.23182    0.63514    0.94922    1.000
    Si959    Si       0.21350    0.64902    0.91045    1.000
    N960     N        0.02991    0.67168    0.06896    1.000
    Si961    Si       0.06992    0.68319    0.05583    1.000
    N962     N        0.09921    0.67190    0.08598    1.000
    Si963    Si       0.99779    0.69014    0.04800    1.000
    N964     N        0.08257    0.65933    0.02147    1.000
    Si965    Si       0.19344    0.67282    0.03611    1.000
    N966     N        0.16170    0.70206    0.04437    1.000
    Si967    Si       0.13713    0.69397    0.08037    1.000
    N968     N        0.16482    0.66868    0.10113    1.000
    N969     N        0.23446    0.68038    0.05218    1.000
    N970     N        0.05805    0.65751    0.20089    1.000
    Si971    Si       0.07915    0.70018    0.19734    1.000
    Si972    Si       0.00071    0.68517    0.14771    1.000
    Si973    Si       0.01772    0.66252    0.21666    1.000
    N974     N        0.99297    0.68698    0.19130    1.000
    N975     N        0.22534    0.67923    0.13728    1.000
    N976     N        0.17578    0.65703    0.17949    1.000
    Si977    Si       0.18321    0.67330    0.13974    1.000
    N978     N        0.16194    0.71186    0.15152    1.000
    Si979    Si       0.16166    0.69710    0.19366    1.000
    N980     N        0.11974    0.69614    0.20770    1.000
    N981     N        0.05949    0.68687    0.30926    1.000
    Si982    Si       0.02036    0.69469    0.32856    1.000
    N983     N        0.01445    0.67869    0.25791    1.000
    Si984    Si       0.05676    0.68908    0.26598    1.000
    N985     N        0.09021    0.66048    0.26229    1.000
    N986     N        0.01913    0.71104    0.36838    1.000
    Si987    Si       0.09152    0.65640    0.30571    1.000
    N988     N        0.00125    0.65654    0.32899    1.000
    Si989    Si       0.20774    0.69176    0.32399    1.000
    N990     N        0.12901    0.66973    0.32494    1.000
    N991     N        0.22043    0.67463    0.28586    1.000
    N992     N        0.19505    0.66175    0.35204    1.000
    Si993    Si       0.13816    0.71111    0.31725    1.000
    Si994    Si       0.12729    0.68433    0.24939    1.000
    N995     N        0.23925    0.70437    0.35318    1.000
    N996     N        0.16353    0.66039    0.24534    1.000
    N997     N        0.02472    0.69686    0.43645    1.000
    Si998    Si       0.10513    0.67603    0.42939    1.000
    N999     N        0.09302    0.70212    0.46151    1.000
    N1000    N        0.08203    0.68684    0.39274    1.000
    Si1001   Si       0.03839    0.68521    0.39805    1.000
    N1002    N        0.13990    0.69545    0.41048    1.000
    N1003    N        0.21218    0.69502    0.41699    1.000
    Si1004   Si       0.17409    0.69787    0.43819    1.000
    N1005    N        0.17317    0.65965    0.46210    1.000
    Si1006   Si       0.22616    0.67124    0.38190    1.000
    Si1007   Si       0.00330    0.68289    0.56563    1.000
    N1008    N        0.08778    0.67357    0.57222    1.000
    Si1009   Si       0.09992    0.69202    0.50123    1.000
    Si1010   Si       0.07612    0.71460    0.56434    1.000
    N1011    N        0.07975    0.65403    0.50797    1.000
    Si1012   Si       0.17539    0.66542    0.50515    1.000
    Si1013   Si       0.12444    0.67322    0.59599    1.000
    N1014    N        0.20375    0.69617    0.51505    1.000
    N1015    N        0.14185    0.69423    0.50936    1.000
    N1016    N        0.15424    0.70625    0.59971    1.000
    N1017    N        0.23388    0.70952    0.59542    1.000
    Si1018   Si       0.19584    0.70905    0.61761    1.000
    Si1019   Si       0.00874    0.66798    0.64157    1.000
    Si1020   Si       0.08113    0.69445    0.73128    1.000
    N1021    N        0.05095    0.67762    0.65657    1.000
    Si1022   Si       0.09448    0.68216    0.66144    1.000
    N1023    N        0.11297    0.68407    0.70360    1.000
    Si1024   Si       0.03096    0.71238    0.67424    1.000
    N1025    N        0.06347    0.65569    0.73442    1.000
    N1026    N        0.99137    0.69402    0.67656    1.000
    N1027    N        0.11742    0.65579    0.63568    1.000
    N1028    N        0.19916    0.68057    0.65194    1.000
    Si1029   Si       0.19581    0.68195    0.69587    1.000
    N1030    N        0.23269    0.67193    0.71709    1.000
    N1031    N        0.02222    0.70189    0.83319    1.000
    Si1032   Si       0.10956    0.69690    0.80148    1.000
    N1033    N        0.07741    0.66512    0.80340    1.000
    Si1034   Si       0.03848    0.66283    0.82285    1.000
    N1035    N        0.11152    0.66825    0.86944    1.000
    N1036    N        0.14918    0.67870    0.80258    1.000
    Si1037   Si       0.18900    0.68404    0.82022    1.000
    N1038    N        0.17814    0.69662    0.86089    1.000
    N1039    N        0.22616    0.65891    0.81875    1.000
    Si1040   Si       0.15395    0.65922    0.86778    1.000
    Si1041   Si       0.01928    0.70870    0.87575    1.000
    Si1042   Si       0.09484    0.70712    0.87614    1.000
    N1043    N        0.98856    0.67912    0.89158    1.000
    N1044    N        0.05683    0.67948    0.96189    1.000
    N1045    N        0.05692    0.71151    0.89832    1.000
    Si1046   Si       0.09291    0.66053    0.97838    1.000
    Si1047   Si       0.24000    0.66902    0.98195    1.000
    N1048    N        0.19677    0.67529    0.99298    1.000
    Si1049   Si       0.16860    0.68364    0.96147    1.000
    N1050    N        0.19741    0.68928    0.92970    1.000
    Si1051   Si       0.21870    0.71611    0.90430    1.000
    N1052    N        0.13277    0.65950    0.95869    1.000
    Si1053   Si       0.03881    0.74306    0.03187    1.000
    Si1054   Si       0.10409    0.75291    0.05938    1.000
    N1055    N        0.07207    0.72503    0.05102    1.000
    N1056    N        0.01513    0.76351    0.06105    1.000
    Si1057   Si       0.99608    0.74681    0.09536    1.000
    N1058    N        0.01466    0.71214    0.01597    1.000
    N1059    N        0.11976    0.75666    0.01770    1.000
    N1060    N        0.13131    0.73576    0.09286    1.000
    Si1061   Si       0.15751    0.73524    0.01562    1.000
    N1062    N        0.18691    0.76509    0.00702    1.000
    Si1063   Si       0.22535    0.77259    0.10049    1.000
    N1064    N        0.00815    0.72561    0.13173    1.000
    Si1065   Si       0.03959    0.74646    0.15078    1.000
    Si1066   Si       0.04509    0.75750    0.22636    1.000
    N1067    N        0.06834    0.71684    0.15913    1.000
    N1068    N        0.03503    0.76946    0.18640    1.000
    N1069    N        0.05920    0.71764    0.23331    1.000
    N1070    N        0.18907    0.72020    0.21835    1.000
    Si1071   Si       0.23033    0.72998    0.21409    1.000
    Si1072   Si       0.15100    0.74838    0.13020    1.000
    N1073    N        0.19012    0.76729    0.12516    1.000
    N1074    N        0.23386    0.74051    0.17218    1.000
    Si1075   Si       0.02452    0.75829    0.29876    1.000
    Si1076   Si       0.09891    0.75614    0.27280    1.000
    N1077    N        0.06652    0.75944    0.30436    1.000
    N1078    N        0.99708    0.72116    0.30356    1.000
    N1079    N        0.01294    0.76220    0.25495    1.000
    Si1080   Si       0.99420    0.71879    0.25927    1.000
    Si1081   Si       0.10085    0.76841    0.32979    1.000
    N1082    N        0.11500    0.73292    0.34845    1.000
    N1083    N        0.17870    0.72322    0.31573    1.000
    N1084    N        0.23255    0.76338    0.31757    1.000
    Si1085   Si       0.18957    0.76764    0.30988    1.000
    N1086    N        0.11855    0.71729    0.27645    1.000
    Si1087   Si       0.08822    0.74466    0.45411    1.000
    Si1088   Si       0.01610    0.73431    0.45399    1.000
    N1089    N        0.04890    0.76099    0.45754    1.000
    N1090    N        0.09833    0.75339    0.41220    1.000
    Si1091   Si       0.11106    0.71787    0.38645    1.000
    Si1092   Si       0.15286    0.77444    0.44943    1.000
    N1093    N        0.11622    0.76798    0.47685    1.000
    N1094    N        0.17480    0.73504    0.46120    1.000
    N1095    N        0.22560    0.76876    0.38992    1.000
    N1096    N        0.08752    0.73910    0.59733    1.000
    N1097    N        0.08384    0.72859    0.52370    1.000
    Si1098   Si       0.03904    0.73977    0.52490    1.000
    N1099    N        0.03280    0.71474    0.56064    1.000
    N1100    N        0.01259    0.72431    0.49599    1.000
    Si1101   Si       0.11495    0.76247    0.51980    1.000
    N1102    N        0.21107    0.77234    0.57738    1.000
    N1103    N        0.15725    0.75529    0.52821    1.000
    Si1104   Si       0.17275    0.72486    0.50326    1.000
    Si1105   Si       0.12707    0.74032    0.61402    1.000
    Si1106   Si       0.06046    0.76200    0.62236    1.000
    N1107    N        0.99169    0.76053    0.72284    1.000
    N1108    N        0.05264    0.72054    0.71177    1.000
    Si1109   Si       0.03236    0.75193    0.73459    1.000
    N1110    N        0.02720    0.74361    0.64552    1.000
    N1111    N        0.17742    0.72041    0.70164    1.000
    Si1112   Si       0.13427    0.72296    0.69191    1.000
    N1113    N        0.11733    0.72246    0.65337    1.000
    N1114    N        0.19508    0.74805    0.63927    1.000
    Si1115   Si       0.20329    0.75033    0.68450    1.000
    N1116    N        0.11903    0.75954    0.71252    1.000
    N1117    N        0.03450    0.74262    0.77640    1.000
    Si1118   Si       0.99702    0.77054    0.84247    1.000
    N1119    N        0.10005    0.72366    0.83488    1.000
    Si1120   Si       0.00312    0.71835    0.79607    1.000
    N1121    N        0.09677    0.77511    0.79112    1.000
    Si1122   Si       0.05328    0.77457    0.79595    1.000
    N1123    N        0.03952    0.77478    0.83779    1.000
    N1124    N        0.10524    0.71497    0.76127    1.000
    Si1125   Si       0.11311    0.76541    0.83140    1.000
    Si1126   Si       0.12030    0.75623    0.75671    1.000
    N1127    N        0.15645    0.75584    0.83618    1.000
    Si1128   Si       0.18540    0.75694    0.80425    1.000
    N1129    N        0.16109    0.76692    0.77014    1.000
    N1130    N        0.20644    0.71912    0.79896    1.000
    N1131    N        0.99747    0.74736    0.87999    1.000
    N1132    N        0.08616    0.74351    0.95505    1.000
    N1133    N        0.01782    0.73879    0.95111    1.000
    Si1134   Si       0.05547    0.71786    0.94207    1.000
    Si1135   Si       0.09138    0.77017    0.98747    1.000
    Si1136   Si       0.99039    0.71421    0.97787    1.000
    Si1137   Si       0.98951    0.75766    0.92247    1.000
    N1138    N        0.15516    0.72524    0.97145    1.000
    Si1139   Si       0.16227    0.73518    0.87277    1.000
    Si1140   Si       0.12741    0.74252    0.93865    1.000
    N1141    N        0.12649    0.72727    0.89880    1.000
    N1142    N        0.19314    0.75202    0.89896    1.000
    Si1143   Si       0.18282    0.76508    0.96291    1.000
    N1144    N        0.09237    0.79290    0.07567    1.000
    Si1145   Si       0.03373    0.81715    0.00760    1.000
    Si1146   Si       0.01557    0.81058    0.11368    1.000
    N1147    N        0.99345    0.81959    0.02443    1.000
    N1148    N        0.05368    0.77697    0.00821    1.000
    Si1149   Si       0.07118    0.83126    0.06804    1.000
    Si1150   Si       0.09027    0.78889    0.11909    1.000
    N1151    N        0.21413    0.79790    0.06556    1.000
    Si1152   Si       0.22230    0.77757    0.02764    1.000
    N1153    N        0.08414    0.77521    0.23760    1.000
    N1154    N        0.04798    0.77787    0.12162    1.000
    Si1155   Si       0.02641    0.81242    0.18572    1.000
    Si1156   Si       0.09134    0.81646    0.22711    1.000
    N1157    N        0.09179    0.82833    0.13904    1.000
    N1158    N        0.05237    0.83187    0.21635    1.000
    Si1159   Si       0.13001    0.81780    0.15942    1.000
    N1160    N        0.12461    0.77755    0.14557    1.000
    N1161    N        0.17050    0.83441    0.15259    1.000
    N1162    N        0.20829    0.79755    0.19623    1.000
    Si1163   Si       0.21682    0.77601    0.16017    1.000
    Si1164   Si       0.21723    0.79140    0.23929    1.000
    N1165    N        0.09580    0.79928    0.35862    1.000
    N1166    N        0.00051    0.79028    0.31716    1.000
    Si1167   Si       0.98989    0.79914    0.24993    1.000
    N1168    N        0.12651    0.78167    0.29708    1.000
    Si1169   Si       0.14952    0.81329    0.27906    1.000
    N1170    N        0.18114    0.80062    0.33855    1.000
    N1171    N        0.18526    0.78541    0.26837    1.000
    N1172    N        0.23584    0.82969    0.24889    1.000
    Si1173   Si       0.03649    0.79458    0.48056    1.000
    N1174    N        0.05875    0.82954    0.49261    1.000
    N1175    N        0.10205    0.82711    0.42383    1.000
    Si1176   Si       0.11295    0.79231    0.39844    1.000
    N1177    N        0.99227    0.79519    0.47638    1.000
    N1178    N        0.16421    0.81294    0.46420    1.000
    Si1179   Si       0.20079    0.82183    0.48406    1.000
    N1180    N        0.15473    0.78259    0.40599    1.000
    Si1181   Si       0.18919    0.79449    0.38168    1.000
    N1182    N        0.24010    0.81735    0.46073    1.000
    N1183    N        0.09929    0.79422    0.54354    1.000
    Si1184   Si       0.06103    0.81442    0.53612    1.000
    N1185    N        0.03078    0.78331    0.52690    1.000
    N1186    N        0.03516    0.79471    0.60821    1.000
    N1187    N        0.21356    0.78618    0.50832    1.000
    Si1188   Si       0.12917    0.80742    0.57407    1.000
    N1189    N        0.16455    0.81597    0.55373    1.000
    Si1190   Si       0.18819    0.78156    0.54271    1.000
    Si1191   Si       0.18543    0.78221    0.61385    1.000
    N1192    N        0.14267    0.77716    0.60257    1.000
    N1193    N        0.08524    0.78387    0.64970    1.000
    N1194    N        0.05565    0.78650    0.72042    1.000
    Si1195   Si       0.08883    0.78506    0.69314    1.000
    Si1196   Si       0.09609    0.82718    0.64050    1.000
    Si1197   Si       0.04001    0.82094    0.74394    1.000
    N1198    N        0.00141    0.83024    0.72788    1.000
    Si1199   Si       0.00048    0.77616    0.63252    1.000
    N1200    N        0.11079    0.82549    0.68362    1.000
    Si1201   Si       0.20470    0.81912    0.67217    1.000
    N1202    N        0.18214    0.78813    0.69254    1.000
    N1203    N        0.19715    0.82102    0.62890    1.000
    N1204    N        0.13975    0.82340    0.74135    1.000
    Si1205   Si       0.15024    0.81754    0.70086    1.000
    N1206    N        0.03326    0.81195    0.78466    1.000
    Si1207   Si       0.05987    0.80125    0.86421    1.000
    N1208    N        0.10270    0.78959    0.86467    1.000
    Si1209   Si       0.01358    0.83328    0.81783    1.000
    Si1210   Si       0.19532    0.82039    0.83877    1.000
    Si1211   Si       0.17047    0.80927    0.76853    1.000
    N1212    N        0.21529    0.78726    0.81537    1.000
    N1213    N        0.21102    0.82002    0.75704    1.000
    N1214    N        0.16253    0.82567    0.80927    1.000
    N1215    N        0.04555    0.80503    0.90326    1.000
    Si1216   Si       0.01504    0.82801    0.92628    1.000
    N1217    N        0.10609    0.80968    0.97710    1.000
    N1218    N        0.03191    0.83068    0.96683    1.000
    N1219    N        0.15024    0.78162    0.93883    1.000
    Si1220   Si       0.12899    0.82235    0.87804    1.000
    Si1221   Si       0.13791    0.82087    0.94837    1.000
    N1222    N        0.17178    0.81485    0.87515    1.000
    N1223    N        0.21136    0.79364    0.94866    1.000
    Si1224   Si       0.21896    0.82600    0.97995    1.000
    N1225    N        0.23583    0.81104    0.88798    1.000
    Si1226   Si       0.19865    0.79449    0.90586    1.000
    N1227    N        0.09885    0.86187    0.08077    1.000
    N1228    N        0.06622    0.84053    0.02646    1.000
    N1229    N        0.03379    0.84014    0.08751    1.000
    Si1230   Si       0.09816    0.84706    0.99916    1.000
    Si1231   Si       0.21202    0.84185    0.06508    1.000
    Si1232   Si       0.13752    0.87344    0.06414    1.000
    N1233    N        0.17130    0.85377    0.08348    1.000
    N1234    N        0.13263    0.86040    0.02242    1.000
    N1235    N        0.20457    0.84864    0.02183    1.000
    Si1236   Si       0.17112    0.86712    0.00115    1.000
    N1237    N        0.24081    0.85908    0.09468    1.000
    Si1238   Si       0.09519    0.86732    0.12166    1.000
    Si1239   Si       0.02113    0.88006    0.13145    1.000
    Si1240   Si       0.03021    0.85909    0.24131    1.000
    N1241    N        0.01908    0.83706    0.14922    1.000
    N1242    N        0.00836    0.88993    0.21760    1.000
    Si1243   Si       0.13786    0.86106    0.22745    1.000
    N1244    N        0.23475    0.85961    0.16437    1.000
    N1245    N        0.17948    0.85530    0.22030    1.000
    N1246    N        0.13219    0.88459    0.13589    1.000
    Si1247   Si       0.17324    0.86668    0.12516    1.000
    Si1248   Si       0.19932    0.83839    0.18448    1.000
    N1249    N        0.12048    0.83395    0.19851    1.000
    Si1250   Si       0.08513    0.85862    0.28662    1.000
    N1251    N        0.99828    0.83898    0.26709    1.000
    N1252    N        0.05650    0.83939    0.31160    1.000
    N1253    N        0.06063    0.88546    0.25977    1.000
    Si1254   Si       0.07256    0.83544    0.35219    1.000
    N1255    N        0.11105    0.88495    0.30705    1.000
    N1256    N        0.11590    0.83514    0.25901    1.000
    N1257    N        0.09383    0.86916    0.37193    1.000
    Si1258   Si       0.01213    0.83154    0.30921    1.000
    Si1259   Si       0.12532    0.88557    0.34745    1.000
    N1260    N        0.17462    0.84904    0.28906    1.000
    N1261    N        0.16592    0.87044    0.35534    1.000
    Si1262   Si       0.20387    0.85834    0.25714    1.000
    N1263    N        0.22922    0.85667    0.33038    1.000
    Si1264   Si       0.18812    0.84352    0.32892    1.000
    Si1265   Si       0.06809    0.86846    0.47685    1.000
    N1266    N        0.04867    0.87751    0.43860    1.000
    Si1267   Si       0.07256    0.85673    0.40909    1.000
    Si1268   Si       0.99853    0.83998    0.38300    1.000
    N1269    N        0.04117    0.83579    0.38249    1.000
    N1270    N        0.11253    0.87252    0.47304    1.000
    N1271    N        0.15698    0.87371    0.42518    1.000
    Si1272   Si       0.13513    0.84385    0.44996    1.000
    N1273    N        0.20793    0.83307    0.39392    1.000
    Si1274   Si       0.18487    0.87161    0.39271    1.000
    Si1275   Si       0.21227    0.89417    0.49528    1.000
    N1276    N        0.04259    0.84215    0.55977    1.000
    Si1277   Si       0.03856    0.88326    0.54677    1.000
    N1278    N        0.99408    0.84979    0.60827    1.000
    Si1279   Si       0.10834    0.87683    0.57789    1.000
    Si1280   Si       0.03617    0.83641    0.60354    1.000
    N1281    N        0.04767    0.89368    0.50644    1.000
    N1282    N        0.11110    0.83796    0.59998    1.000
    N1283    N        0.13665    0.87430    0.54134    1.000
    Si1284   Si       0.17620    0.85638    0.54655    1.000
    N1285    N        0.19582    0.87618    0.57966    1.000
    N1286    N        0.19373    0.85696    0.50744    1.000
    Si1287   Si       0.20405    0.86289    0.61991    1.000
    Si1288   Si       0.07512    0.89446    0.64949    1.000
    N1289    N        0.06199    0.85481    0.63579    1.000
    N1290    N        0.06898    0.85332    0.73832    1.000
    N1291    N        0.17683    0.84993    0.68692    1.000
    N1292    N        0.22722    0.88333    0.70689    1.000
    Si1293   Si       0.22014    0.86118    0.74582    1.000
    Si1294   Si       0.07037    0.87136    0.85312    1.000
    N1295    N        0.04515    0.83902    0.84433    1.000
    N1296    N        0.11107    0.85186    0.85036    1.000
    Si1297   Si       0.11096    0.85506    0.74324    1.000
    N1298    N        0.12582    0.87567    0.77883    1.000
    Si1299   Si       0.13652    0.86024    0.81689    1.000
    N1300    N        0.22094    0.85690    0.83847    1.000
    N1301    N        0.19618    0.88579    0.77307    1.000
    Si1302   Si       0.20378    0.89044    0.81721    1.000
    N1303    N        0.06888    0.88327    0.89710    1.000
    N1304    N        0.10076    0.87691    0.96701    1.000
    Si1305   Si       0.10578    0.88007    0.92133    1.000
    N1306    N        0.00370    0.86970    0.91444    1.000
    N1307    N        0.12047    0.83862    0.91549    1.000
    N1308    N        0.17243    0.84021    0.96681    1.000
    N1309    N        0.10353    0.93146    0.02171    1.000
    N1310    N        0.01439    0.91378    0.09954    1.000
    N1311    N        0.08093    0.93914    0.08855    1.000
    Si1312   Si       0.03844    0.94028    0.07586    1.000
    N1313    N        0.03467    0.93167    0.03416    1.000
    Si1314   Si       0.99566    0.91950    0.01950    1.000
    Si1315   Si       0.11564    0.94334    0.06212    1.000
    N1316    N        0.22570    0.92004    0.07124    1.000
    N1317    N        0.14929    0.91665    0.07032    1.000
    Si1318   Si       0.18728    0.92706    0.09012    1.000
    Si1319   Si       0.23092    0.94038    0.03355    1.000
    N1320    N        0.22816    0.91470    0.99928    1.000
    N1321    N        0.06403    0.89265    0.13762    1.000
    Si1322   Si       0.07885    0.93437    0.13225    1.000
    N1323    N        0.08200    0.94275    0.20856    1.000
    Si1324   Si       0.99599    0.92255    0.24248    1.000
    N1325    N        0.12554    0.90279    0.23884    1.000
    Si1326   Si       0.15149    0.92040    0.14839    1.000
    N1327    N        0.11822    0.94809    0.14849    1.000
    N1328    N        0.16202    0.92626    0.18840    1.000
    Si1329   Si       0.22807    0.90212    0.15737    1.000
    Si1330   Si       0.12604    0.93780    0.21188    1.000
    N1331    N        0.22739    0.92089    0.19595    1.000
    N1332    N        0.19058    0.90600    0.12867    1.000
    N1333    N        0.09595    0.94643    0.27434    1.000
    N1334    N        0.02950    0.94661    0.24988    1.000
    Si1335   Si       0.06828    0.92769    0.24804    1.000
    Si1336   Si       0.00987    0.94183    0.37037    1.000
    N1337    N        0.11916    0.92668    0.35591    1.000
    N1338    N        0.21786    0.89883    0.25889    1.000
    Si1339   Si       0.12458    0.91594    0.28057    1.000
    N1340    N        0.16086    0.93052    0.29870    1.000
    Si1341   Si       0.19884    0.93379    0.27667    1.000
    N1342    N        0.04415    0.91910    0.38375    1.000
    Si1343   Si       0.08562    0.93081    0.38360    1.000
    Si1344   Si       0.02330    0.91514    0.42636    1.000
    N1345    N        0.03975    0.94466    0.45613    1.000
    N1346    N        0.10649    0.92600    0.42316    1.000
    Si1347   Si       0.02072    0.92185    0.49046    1.000
    N1348    N        0.99243    0.94187    0.41140    1.000
    Si1349   Si       0.14146    0.90952    0.44151    1.000
    Si1350   Si       0.19327    0.94550    0.46020    1.000
    N1351    N        0.22573    0.91562    0.45561    1.000
    N1352    N        0.16621    0.91344    0.47954    1.000
    N1353    N        0.22196    0.89591    0.39011    1.000
    Si1354   Si       0.07279    0.93922    0.58611    1.000
    N1355    N        0.07313    0.89992    0.56924    1.000
    N1356    N        0.99749    0.89321    0.55714    1.000
    N1357    N        0.10913    0.93406    0.51006    1.000
    Si1358   Si       0.13114    0.89735    0.50506    1.000
    N1359    N        0.13261    0.90932    0.59771    1.000
    Si1360   Si       0.21842    0.91031    0.56925    1.000
    N1361    N        0.21266    0.92349    0.52975    1.000
    N1362    N        0.20844    0.94325    0.59589    1.000
    N1363    N        0.08805    0.91556    0.73709    1.000
    N1364    N        0.04909    0.90826    0.68341    1.000
    N1365    N        0.07188    0.93324    0.62846    1.000
    N1366    N        0.00328    0.94118    0.64345    1.000
    N1367    N        0.01203    0.89799    0.74053    1.000
    Si1368   Si       0.04439    0.94457    0.66098    1.000
    Si1369   Si       0.05131    0.89412    0.72484    1.000
    N1370    N        0.23723    0.93727    0.73825    1.000
    Si1371   Si       0.18511    0.89229    0.69092    1.000
    N1372    N        0.11504    0.89859    0.66733    1.000
    Si1373   Si       0.11666    0.92042    0.70500    1.000
    N1374    N        0.19205    0.94336    0.68600    1.000
    N1375    N        0.15304    0.90286    0.72206    1.000
    Si1376   Si       0.20479    0.94129    0.64143    1.000
    N1377    N        0.18642    0.89735    0.64461    1.000
    Si1378   Si       0.14519    0.90780    0.63848    1.000
    Si1379   Si       0.09651    0.91486    0.77958    1.000
    N1380    N        0.00905    0.94008    0.80022    1.000
    Si1381   Si       0.04839    0.92997    0.82373    1.000
    Si1382   Si       0.99954    0.93713    0.75811    1.000
    N1383    N        0.02625    0.90256    0.85238    1.000
    N1384    N        0.07735    0.89715    0.81721    1.000
    Si1385   Si       0.99053    0.90608    0.82464    1.000
    Si1386   Si       0.15810    0.90457    0.76690    1.000
    Si1387   Si       0.15029    0.91915    0.86168    1.000
    N1388    N        0.13633    0.93744    0.78331    1.000
    N1389    N        0.22240    0.93163    0.81846    1.000
    Si1390   Si       0.22786    0.94895    0.77863    1.000
    N1391    N        0.16295    0.89180    0.83124    1.000
    N1392    N        0.00221    0.91182    0.97624    1.000
    N1393    N        0.02477    0.94116    0.91450    1.000
    Si1394   Si       0.02905    0.90049    0.89688    1.000
    N1395    N        0.19348    0.93252    0.94178    1.000
    N1396    N        0.16264    0.90711    0.99192    1.000
    Si1397   Si       0.12024    0.90901    0.98841    1.000
    N1398    N        0.11956    0.94023    0.95553    1.000
    Si1399   Si       0.19365    0.93665    0.98535    1.000
    N1400    N        0.13371    0.90641    0.90132    1.000
    N1401    N        0.18875    0.93047    0.87638    1.000
    Si1402   Si       0.15277    0.93778    0.92506    1.000
    Si1403   Si       0.21840    0.92189    0.90894    1.000
    N1404    N        0.02559    0.98066    0.07961    1.000
    N1405    N        0.07199    0.99416    0.02774    1.000
    Si1406   Si       0.06606    0.95100    0.01248    1.000
    N1407    N        0.00170    0.00618    0.01534    1.000
    Si1408   Si       0.03136    0.00469    0.04378    1.000
    Si1409   Si       0.01883    0.98966    0.12164    1.000
    N1410    N        0.13014    0.98309    0.06150    1.000
    N1411    N        0.18759    0.96932    0.09445    1.000
    Si1412   Si       0.17559    0.98549    0.05578    1.000
    N1413    N        0.19386    0.96161    0.02486    1.000
    Si1414   Si       0.06434    0.97755    0.18581    1.000
    N1415    N        0.04838    0.96494    0.14761    1.000
    N1416    N        0.04083    0.00104    0.21242    1.000
    Si1417   Si       0.19291    0.99655    0.12771    1.000
    Si1418   Si       0.12876    0.98796    0.16600    1.000
    N1419    N        0.13737    0.98203    0.20804    1.000
    N1420    N        0.20070    0.96243    0.24267    1.000
    N1421    N        0.20275    0.98193    0.16949    1.000
    N1422    N        0.15105    0.01075    0.13557    1.000
    Si1423   Si       0.19707    0.95194    0.20036    1.000
    Si1424   Si       0.09052    0.98746    0.29199    1.000
    N1425    N        0.02460    0.98064    0.35799    1.000
    Si1426   Si       0.01652    0.99687    0.31923    1.000
    N1427    N        0.04872    0.99563    0.28940    1.000
    Si1428   Si       0.02399    0.99028    0.25275    1.000
    Si1429   Si       0.10573    0.00569    0.36782    1.000
    N1430    N        0.11900    0.99055    0.32728    1.000
    Si1431   Si       0.20664    0.98127    0.32855    1.000
    N1432    N        0.18044    0.96543    0.35683    1.000
    Si1433   Si       0.20349    0.00107    0.26403    1.000
    Si1434   Si       0.14521    0.95497    0.33288    1.000
    N1435    N        0.18110    0.00161    0.30090    1.000
    N1436    N        0.22753    0.95167    0.30530    1.000
    N1437    N        0.09953    0.99085    0.45759    1.000
    Si1438   Si       0.05685    0.98359    0.46552    1.000
    N1439    N        0.08201    0.97436    0.39029    1.000
    N1440    N        0.03895    0.00883    0.43224    1.000
    Si1441   Si       0.04621    0.00008    0.38912    1.000
    Si1442   Si       0.11779    0.97073    0.42435    1.000
    N1443    N        0.16193    0.95174    0.42892    1.000
    N1444    N        0.20996    0.97896    0.48140    1.000
    Si1445   Si       0.17387    0.97929    0.39766    1.000
    N1446    N        0.20728    0.99989    0.41538    1.000
    N1447    N        0.13711    0.00235    0.39699    1.000
    Si1448   Si       0.02613    0.98108    0.53797    1.000
    Si1449   Si       0.00229    0.96418    0.60578    1.000
    N1450    N        0.05990    0.97982    0.50992    1.000
    Si1451   Si       0.09983    0.96959    0.52788    1.000
    N1452    N        0.10282    0.96574    0.57154    1.000
    N1453    N        0.03545    0.95892    0.57729    1.000
    N1454    N        0.00216    0.00648    0.61686    1.000
    N1455    N        0.00061    0.95228    0.51792    1.000
    N1456    N        0.12433    0.00300    0.52415    1.000
    N1457    N        0.16221    0.98808    0.58358    1.000
    Si1458   Si       0.20439    0.98743    0.59078    1.000
    N1459    N        0.23129    0.99068    0.55632    1.000
    Si1460   Si       0.22937    0.96337    0.51942    1.000
    Si1461   Si       0.14039    0.95308    0.59593    1.000
    Si1462   Si       0.01735    0.99513    0.70946    1.000
    Si1463   Si       0.08834    0.99154    0.69923    1.000
    N1464    N        0.04998    0.98173    0.68291    1.000
    N1465    N        0.02358    0.96850    0.74211    1.000
    N1466    N        0.08559    0.00396    0.74161    1.000
    N1467    N        0.21264    0.98833    0.63682    1.000
    N1468    N        0.23695    0.99428    0.70313    1.000
    Si1469   Si       0.15938    0.97107    0.67693    1.000
    N1470    N        0.15171    0.95254    0.63878    1.000
    N1471    N        0.12172    0.96285    0.69824    1.000
    Si1472   Si       0.23269    0.95014    0.69822    1.000
    Si1473   Si       0.05691    0.98219    0.76652    1.000
    Si1474   Si       0.01440    0.98159    0.81955    1.000
    N1475    N        0.04087    0.96580    0.84844    1.000
    N1476    N        0.07626    0.95478    0.79261    1.000
    N1477    N        0.03294    0.01094    0.79246    1.000
    Si1478   Si       0.11518    0.96670    0.80906    1.000
    N1479    N        0.22582    0.00005    0.84942    1.000
    N1480    N        0.12580    0.95669    0.85104    1.000
    N1481    N        0.22687    0.99241    0.77960    1.000
    Si1482   Si       0.21986    0.95761    0.85437    1.000
    N1483    N        0.11994    0.00846    0.80339    1.000
    Si1484   Si       0.04091    0.97400    0.89073    1.000
    N1485    N        0.05526    0.96028    0.97116    1.000
    N1486    N        0.08284    0.97764    0.90337    1.000
    Si1487   Si       0.08911    0.97001    0.94559    1.000
    N1488    N        0.10516    0.00783    0.96190    1.000
    Si1489   Si       0.01552    0.94849    0.95612    1.000
    N1490    N        0.14854    0.98256    0.91578    1.000
    Si1491   Si       0.12051    0.98679    0.88196    1.000
    N1492    N        0.23985    0.98665    0.96504    1.000
    N1493    N        0.26893    0.04790    0.07604    1.000
    N1494    N        0.28729    0.02718    0.00943    1.000
    N1495    N        0.34196    0.03674    0.04664    1.000
    Si1496   Si       0.29734    0.02685    0.05183    1.000
    Si1497   Si       0.26399    0.04420    0.11942    1.000
    N1498    N        0.46420    0.05739    0.10533    1.000
    N1499    N        0.46559    0.05829    0.00025    1.000
    N1500    N        0.34989    0.01457    0.12133    1.000
    Si1501   Si       0.33904    0.04603    0.14995    1.000
    N1502    N        0.32456    0.02661    0.18567    1.000
    Si1503   Si       0.33464    0.03263    0.22901    1.000
    Si1504   Si       0.25816    0.03657    0.23900    1.000
    N1505    N        0.25622    0.01517    0.20126    1.000
    N1506    N        0.30290    0.06462    0.13055    1.000
    N1507    N        0.29819    0.05150    0.24648    1.000
    Si1508   Si       0.46875    0.04701    0.19395    1.000
    Si1509   Si       0.41121    0.03832    0.24025    1.000
    Si1510   Si       0.42995    0.05870    0.13270    1.000
    N1511    N        0.37399    0.05410    0.22690    1.000
    N1512    N        0.44110    0.02130    0.21250    1.000
    N1513    N        0.41736    0.01677    0.13559    1.000
    N1514    N        0.28962    0.03600    0.33861    1.000
    Si1515   Si       0.25298    0.03508    0.31432    1.000
    N1516    N        0.35075    0.02514    0.29396    1.000
    N1517    N        0.34849    0.06273    0.35877    1.000
    N1518    N        0.46752    0.00781    0.36807    1.000
    Si1519   Si       0.37358    0.04655    0.32641    1.000
    Si1520   Si       0.47711    0.04722    0.26927    1.000
    N1521    N        0.40826    0.01788    0.33128    1.000
    N1522    N        0.47393    0.01188    0.29657    1.000
    N1523    N        0.43714    0.06258    0.26540    1.000
    Si1524   Si       0.42508    0.01650    0.37040    1.000
    N1525    N        0.33363    0.01332    0.42307    1.000
    N1526    N        0.26673    0.03102    0.44455    1.000
    N1527    N        0.32779    0.04902    0.48041    1.000
    Si1528   Si       0.35698    0.03947    0.44697    1.000
    Si1529   Si       0.28514    0.04400    0.48458    1.000
    Si1530   Si       0.24334    0.06773    0.43378    1.000
    N1531    N        0.39549    0.02792    0.45976    1.000
    N1532    N        0.42158    0.05564    0.39132    1.000
    Si1533   Si       0.42687    0.04001    0.43249    1.000
    Si1534   Si       0.45919    0.06427    0.49260    1.000
    Si1535   Si       0.40926    0.00978    0.49729    1.000
    N1536    N        0.28309    0.03776    0.58306    1.000
    Si1537   Si       0.32681    0.03197    0.57730    1.000
    Si1538   Si       0.35355    0.05503    0.51457    1.000
    Si1539   Si       0.25442    0.02540    0.55018    1.000
    N1540    N        0.28180    0.01305    0.51493    1.000
    N1541    N        0.33444    0.03786    0.62175    1.000
    Si1542   Si       0.45221    0.04901    0.55768    1.000
    N1543    N        0.37377    0.01703    0.51970    1.000
    N1544    N        0.43683    0.03589    0.51976    1.000
    N1545    N        0.44444    0.02119    0.59109    1.000
    Si1546   Si       0.44185    0.05843    0.61869    1.000
    Si1547   Si       0.29136    0.05140    0.62625    1.000
    N1548    N        0.28154    0.02215    0.65757    1.000
    N1549    N        0.35421    0.00592    0.68048    1.000
    Si1550   Si       0.39840    0.06096    0.74418    1.000
    N1551    N        0.48184    0.05873    0.63662    1.000
    N1552    N        0.40584    0.05129    0.64421    1.000
    N1553    N        0.42537    0.04847    0.71061    1.000
    Si1554   Si       0.37017    0.02528    0.64207    1.000
    Si1555   Si       0.44485    0.00938    0.72426    1.000
    Si1556   Si       0.34743    0.04519    0.83229    1.000
    N1557    N        0.27089    0.03922    0.80861    1.000
    Si1558   Si       0.30099    0.02960    0.77811    1.000
    N1559    N        0.33690    0.01942    0.80075    1.000
    N1560    N        0.32012    0.06448    0.86001    1.000
    N1561    N        0.30337    0.06871    0.75620    1.000
    Si1562   Si       0.27890    0.06656    0.84105    1.000
    N1563    N        0.25085    0.05655    0.87320    1.000
    N1564    N        0.37838    0.03005    0.85914    1.000
    Si1565   Si       0.41800    0.04563    0.86000    1.000
    N1566    N        0.43884    0.02575    0.82703    1.000
    Si1567   Si       0.45643    0.04515    0.79220    1.000
    N1568    N        0.37963    0.02225    0.75004    1.000
    N1569    N        0.35160    0.02058    0.93360    1.000
    Si1570   Si       0.27387    0.06296    0.98716    1.000
    N1571    N        0.36352    0.06736    0.98710    1.000
    N1572    N        0.42432    0.05242    0.90661    1.000
    Si1573   Si       0.45742    0.01912    0.98766    1.000
    Si1574   Si       0.43150    0.01638    0.93028    1.000
    N1575    N        0.41646    0.03226    0.97013    1.000
    Si1576   Si       0.37273    0.02808    0.97107    1.000
    N1577    N        0.33475    0.10569    0.04030    1.000
    N1578    N        0.27256    0.09917    0.01426    1.000
    Si1579   Si       0.25739    0.08590    0.05632    1.000
    N1580    N        0.27694    0.11559    0.08162    1.000
    N1581    N        0.34220    0.11848    0.11388    1.000
    Si1582   Si       0.31100    0.12277    0.00731    1.000
    Si1583   Si       0.29964    0.10759    0.11994    1.000
    Si1584   Si       0.36007    0.07264    0.02844    1.000
    N1585    N        0.40363    0.08104    0.03452    1.000
    N1586    N        0.45605    0.11742    0.06986    1.000
    Si1587   Si       0.41419    0.10472    0.07029    1.000
    N1588    N        0.40209    0.08185    0.10741    1.000
    Si1589   Si       0.48549    0.09050    0.08710    1.000
    N1590    N        0.33481    0.12039    0.19963    1.000
    Si1591   Si       0.24349    0.12674    0.15728    1.000
    Si1592   Si       0.24441    0.11292    0.23677    1.000
    N1593    N        0.36703    0.07724    0.16270    1.000
    N1594    N        0.40770    0.11606    0.21137    1.000
    Si1595   Si       0.43549    0.11793    0.17717    1.000
    N1596    N        0.44546    0.07638    0.16995    1.000
    Si1597   Si       0.37086    0.09314    0.20534    1.000
    Si1598   Si       0.37777    0.10672    0.13426    1.000
    N1599    N        0.32071    0.09581    0.30448    1.000
    Si1600   Si       0.29174    0.08198    0.27591    1.000
    N1601    N        0.28335    0.09977    0.35854    1.000
    Si1602   Si       0.25240    0.10782    0.33127    1.000
    N1603    N        0.25753    0.07544    0.30057    1.000
    Si1604   Si       0.35819    0.11533    0.29694    1.000
    Si1605   Si       0.31187    0.07235    0.34028    1.000
    N1606    N        0.28385    0.11883    0.25172    1.000
    N1607    N        0.44796    0.09058    0.33608    1.000
    Si1608   Si       0.42877    0.08816    0.29714    1.000
    N1609    N        0.38801    0.08588    0.30810    1.000
    Si1610   Si       0.48948    0.10054    0.32995    1.000
    Si1611   Si       0.27747    0.11486    0.46789    1.000
    N1612    N        0.27080    0.10081    0.42778    1.000
    Si1613   Si       0.35907    0.10583    0.46449    1.000
    N1614    N        0.26331    0.08096    0.49114    1.000
    N1615    N        0.36156    0.07778    0.42999    1.000
    Si1616   Si       0.35866    0.09208    0.38932    1.000
    N1617    N        0.31940    0.12411    0.47609    1.000
    N1618    N        0.44170    0.07606    0.45485    1.000
    N1619    N        0.38905    0.11782    0.37225    1.000
    Si1620   Si       0.45540    0.11551    0.44541    1.000
    Si1621   Si       0.42788    0.09550    0.37322    1.000
    N1622    N        0.45158    0.11733    0.40225    1.000
    N1623    N        0.37624    0.08848    0.50073    1.000
    Si1624   Si       0.34981    0.10776    0.57002    1.000
    N1625    N        0.33943    0.11731    0.61147    1.000
    N1626    N        0.34205    0.06760    0.55767    1.000
    N1627    N        0.44354    0.08593    0.58672    1.000
    N1628    N        0.44782    0.09836    0.52027    1.000
    Si1629   Si       0.40476    0.11233    0.52118    1.000
    N1630    N        0.39036    0.11436    0.56264    1.000
    Si1631   Si       0.48404    0.10177    0.54477    1.000
    Si1632   Si       0.42492    0.12519    0.58655    1.000
    Si1633   Si       0.23996    0.08910    0.66644    1.000
    N1634    N        0.27429    0.08878    0.63652    1.000
    N1635    N        0.25902    0.09947    0.70377    1.000
    Si1636   Si       0.26163    0.07760    0.74208    1.000
    Si1637   Si       0.29719    0.12466    0.63045    1.000
    N1638    N        0.36835    0.09202    0.73961    1.000
    Si1639   Si       0.48694    0.09195    0.66626    1.000
    N1640    N        0.44523    0.10498    0.67277    1.000
    Si1641   Si       0.41226    0.07778    0.67997    1.000
    N1642    N        0.38025    0.10695    0.67687    1.000
    Si1643   Si       0.37700    0.12678    0.71555    1.000
    N1644    N        0.28017    0.11003    0.83396    1.000
    Si1645   Si       0.33657    0.09285    0.77003    1.000
    N1646    N        0.25202    0.10792    0.77021    1.000
    N1647    N        0.35779    0.07952    0.80528    1.000
    N1648    N        0.35696    0.12596    0.85552    1.000
    Si1649   Si       0.28346    0.12558    0.79479    1.000
    N1650    N        0.48023    0.10859    0.84424    1.000
    N1651    N        0.42781    0.07374    0.77416    1.000
    N1652    N        0.41477    0.08941    0.85291    1.000
    Si1653   Si       0.38240    0.10855    0.82626    1.000
    Si1654   Si       0.43230    0.11715    0.76946    1.000
    Si1655   Si       0.44397    0.11955    0.86280    1.000
    N1656    N        0.47463    0.12370    0.77333    1.000
    Si1657   Si       0.34309    0.08983    0.95603    1.000
    N1658    N        0.29924    0.11749    0.90027    1.000
    Si1659   Si       0.27750    0.10909    0.93516    1.000
    N1660    N        0.29954    0.08030    0.95728    1.000
    Si1661   Si       0.33639    0.09885    0.88510    1.000
    Si1662   Si       0.42075    0.07087    0.99351    1.000
    Si1663   Si       0.41261    0.09196    0.92157    1.000
    N1664    N        0.41813    0.10427    0.96505    1.000
    N1665    N        0.36708    0.09408    0.91918    1.000
    N1666    N        0.44043    0.12374    0.90659    1.000
    N1667    N        0.31940    0.16937    0.07562    1.000
    N1668    N        0.29285    0.15930    0.02065    1.000
    Si1669   Si       0.27529    0.15574    0.06300    1.000
    Si1670   Si       0.34555    0.13195    0.07226    1.000
    N1671    N        0.35800    0.17811    0.01872    1.000
    Si1672   Si       0.25081    0.13939    0.00203    1.000
    N1673    N        0.47898    0.18292    0.05219    1.000
    N1674    N        0.38803    0.13891    0.06651    1.000
    Si1675   Si       0.46130    0.14460    0.03838    1.000
    Si1676   Si       0.39614    0.17202    0.03978    1.000
    N1677    N        0.42517    0.15192    0.01640    1.000
    Si1678   Si       0.31331    0.15278    0.17790    1.000
    N1679    N        0.30099    0.17172    0.21449    1.000
    Si1680   Si       0.32125    0.14000    0.23986    1.000
    N1681    N        0.28677    0.13256    0.15165    1.000
    N1682    N        0.33372    0.18316    0.15503    1.000
    N1683    N        0.47443    0.14046    0.17538    1.000
    Si1684   Si       0.48225    0.17511    0.14792    1.000
    N1685    N        0.40497    0.13642    0.14645    1.000
    Si1686   Si       0.40453    0.17870    0.13677    1.000
    N1687    N        0.25748    0.14866    0.31933    1.000
    Si1688   Si       0.26435    0.16055    0.27780    1.000
    Si1689   Si       0.24838    0.17554    0.35187    1.000
    N1690    N        0.30879    0.17324    0.27814    1.000
    N1691    N        0.36304    0.15331    0.31790    1.000
    N1692    N        0.36044    0.12737    0.25465    1.000
    Si1693   Si       0.45270    0.15860    0.30423    1.000
    Si1694   Si       0.38903    0.15672    0.35306    1.000
    N1695    N        0.42553    0.17514    0.33334    1.000
    N1696    N        0.48559    0.14342    0.32779    1.000
    N1697    N        0.43077    0.13099    0.28006    1.000
    N1698    N        0.40062    0.18225    0.24431    1.000
    Si1699   Si       0.40207    0.13893    0.24893    1.000
    N1700    N        0.26747    0.16364    0.39188    1.000
    N1701    N        0.25808    0.15287    0.46408    1.000
    Si1702   Si       0.35981    0.15392    0.41395    1.000
    Si1703   Si       0.25587    0.18204    0.43146    1.000
    N1704    N        0.33115    0.12460    0.39893    1.000
    Si1705   Si       0.28711    0.12416    0.39430    1.000
    N1706    N        0.38049    0.18250    0.38782    1.000
    Si1707   Si       0.40847    0.16592    0.46813    1.000
    N1708    N        0.45084    0.15590    0.46428    1.000
    N1709    N        0.38382    0.13779    0.44633    1.000
    N1710    N        0.28273    0.15922    0.60547    1.000
    Si1711   Si       0.29580    0.16784    0.56476    1.000
    N1712    N        0.32518    0.13903    0.54885    1.000
    N1713    N        0.27258    0.16238    0.52774    1.000
    Si1714   Si       0.31177    0.15125    0.50836    1.000
    N1715    N        0.44294    0.16082    0.56331    1.000
    N1716    N        0.40003    0.15479    0.50828    1.000
    Si1717   Si       0.48421    0.17056    0.56274    1.000
    Si1718   Si       0.41648    0.18177    0.53681    1.000
    Si1719   Si       0.32042    0.16883    0.74400    1.000
    N1720    N        0.28037    0.16597    0.72616    1.000
    N1721    N        0.35102    0.16068    0.71465    1.000
    N1722    N        0.31084    0.13813    0.67001    1.000
    Si1723   Si       0.27311    0.13755    0.69456    1.000
    N1724    N        0.25038    0.15515    0.66117    1.000
    Si1725   Si       0.33289    0.17497    0.67638    1.000
    N1726    N        0.36516    0.17386    0.65022    1.000
    Si1727   Si       0.27151    0.18697    0.63834    1.000
    N1728    N        0.40882    0.14120    0.62282    1.000
    N1729    N        0.48497    0.14540    0.70726    1.000
    Si1730   Si       0.36858    0.13113    0.64095    1.000
    N1731    N        0.42635    0.18197    0.68107    1.000
    N1732    N        0.41840    0.13074    0.72956    1.000
    Si1733   Si       0.44336    0.14323    0.69664    1.000
    Si1734   Si       0.40663    0.18257    0.64074    1.000
    N1735    N        0.26820    0.16702    0.79475    1.000
    N1736    N        0.30780    0.17192    0.85947    1.000
    Si1737   Si       0.35190    0.16968    0.86127    1.000
    Si1738   Si       0.25057    0.17538    0.75544    1.000
    Si1739   Si       0.27846    0.13822    0.86851    1.000
    N1740    N        0.32150    0.13397    0.77420    1.000
    N1741    N        0.43832    0.16095    0.85161    1.000
    Si1742   Si       0.41657    0.17108    0.81589    1.000
    N1743    N        0.40530    0.13223    0.79901    1.000
    N1744    N        0.33921    0.12948    0.97445    1.000
    N1745    N        0.36466    0.18660    0.89718    1.000
    Si1746   Si       0.35291    0.17056    0.97547    1.000
    N1747    N        0.27229    0.14336    0.96245    1.000
    Si1748   Si       0.28010    0.18525    0.95579    1.000
    Si1749   Si       0.47338    0.14849    0.92306    1.000
    N1750    N        0.39273    0.17138    0.95710    1.000
    Si1751   Si       0.42576    0.14839    0.97343    1.000
    N1752    N        0.46244    0.16984    0.96107    1.000
    N1753    N        0.30308    0.22963    0.02939    1.000
    N1754    N        0.31898    0.23131    0.09879    1.000
    Si1755   Si       0.33474    0.19190    0.11011    1.000
    Si1756   Si       0.31914    0.19083    0.03554    1.000
    N1757    N        0.25093    0.18914    0.08715    1.000
    Si1758   Si       0.45556    0.21888    0.04503    1.000
    Si1759   Si       0.38514    0.22944    0.08046    1.000
    N1760    N        0.41461    0.21009    0.05361    1.000
    N1761    N        0.37756    0.19525    0.10542    1.000
    N1762    N        0.45949    0.23520    0.00453    1.000
    N1763    N        0.34621    0.21782    0.21887    1.000
    Si1764   Si       0.35532    0.21550    0.17681    1.000
    N1765    N        0.26231    0.23070    0.14392    1.000
    Si1766   Si       0.31183    0.20309    0.24222    1.000
    Si1767   Si       0.23737    0.20227    0.12622    1.000
    N1768    N        0.29113    0.24038    0.24736    1.000
    Si1769   Si       0.43503    0.22108    0.17173    1.000
    N1770    N        0.39621    0.20328    0.17138    1.000
    N1771    N        0.45621    0.21078    0.20791    1.000
    N1772    N        0.44689    0.19785    0.13708    1.000
    N1773    N        0.25965    0.21417    0.33738    1.000
    N1774    N        0.35287    0.22269    0.28583    1.000
    N1775    N        0.32511    0.20033    0.34611    1.000
    Si1776   Si       0.29527    0.23265    0.35018    1.000
    Si1777   Si       0.33674    0.18625    0.30713    1.000
    N1778    N        0.24299    0.19490    0.26037    1.000
    Si1779   Si       0.24691    0.23716    0.24877    1.000
    N1780    N        0.41506    0.24278    0.25882    1.000
    N1781    N        0.46326    0.19240    0.27693    1.000
    N1782    N        0.48730    0.21130    0.33831    1.000
    Si1783   Si       0.44267    0.21358    0.34836    1.000
    Si1784   Si       0.37752    0.21974    0.24993    1.000
    Si1785   Si       0.43755    0.20597    0.24491    1.000
    Si1786   Si       0.34049    0.20761    0.38580    1.000
    N1787    N        0.27598    0.21880    0.45046    1.000
    Si1788   Si       0.31833    0.20788    0.45574    1.000
    N1789    N        0.30998    0.23920    0.39177    1.000
    N1790    N        0.33045    0.18568    0.42250    1.000
    Si1791   Si       0.47286    0.18883    0.48512    1.000
    N1792    N        0.39402    0.20303    0.45361    1.000
    N1793    N        0.44025    0.21382    0.39129    1.000
    Si1794   Si       0.41471    0.23401    0.47775    1.000
    Si1795   Si       0.40209    0.21721    0.41306    1.000
    N1796    N        0.31239    0.20766    0.56253    1.000
    Si1797   Si       0.34580    0.20610    0.53287    1.000
    N1798    N        0.32741    0.19042    0.49481    1.000
    N1799    N        0.38507    0.20684    0.55363    1.000
    N1800    N        0.43627    0.20800    0.50440    1.000
    Si1801   Si       0.39204    0.23912    0.58073    1.000
    N1802    N        0.41084    0.22139    0.61833    1.000
    N1803    N        0.24021    0.21889    0.63306    1.000
    N1804    N        0.30458    0.20431    0.65982    1.000
    Si1805   Si       0.28684    0.23613    0.73971    1.000
    Si1806   Si       0.35850    0.24136    0.74007    1.000
    N1807    N        0.32457    0.21447    0.74254    1.000
    Si1808   Si       0.42786    0.22245    0.70110    1.000
    N1809    N        0.44738    0.23337    0.73935    1.000
    N1810    N        0.26999    0.21799    0.84576    1.000
    N1811    N        0.31870    0.22117    0.81082    1.000
    N1812    N        0.24828    0.21899    0.75367    1.000
    Si1813   Si       0.29282    0.18881    0.82032    1.000
    Si1814   Si       0.36136    0.22335    0.81053    1.000
    N1815    N        0.37634    0.18671    0.82914    1.000
    Si1816   Si       0.42706    0.22806    0.77681    1.000
    N1817    N        0.47887    0.23013    0.86165    1.000
    N1818    N        0.38387    0.23007    0.77434    1.000
    N1819    N        0.44605    0.19102    0.79195    1.000
    Si1820   Si       0.48952    0.19431    0.78806    1.000
    Si1821   Si       0.47695    0.18344    0.85606    1.000
    N1822    N        0.27092    0.19863    0.91495    1.000
    N1823    N        0.32297    0.19643    0.95787    1.000
    Si1824   Si       0.29558    0.21108    0.88031    1.000
    N1825    N        0.25452    0.20817    0.98100    1.000
    Si1826   Si       0.32987    0.23403    0.93906    1.000
    N1827    N        0.32267    0.24044    0.89529    1.000
    Si1828   Si       0.27780    0.24266    0.99289    1.000
    N1829    N        0.48138    0.24157    0.93857    1.000
    Si1830   Si       0.39202    0.20148    0.92395    1.000
    Si1831   Si       0.47847    0.21234    0.97266    1.000
    N1832    N        0.43182    0.21102    0.90917    1.000
    Si1833   Si       0.47346    0.22008    0.90276    1.000
    N1834    N        0.37265    0.23792    0.94106    1.000
    N1835    N        0.26879    0.26402    0.07756    1.000
    Si1836   Si       0.31523    0.25734    0.06191    1.000
    Si1837   Si       0.28508    0.25315    0.11535    1.000
    N1838    N        0.24605    0.26857    0.00875    1.000
    Si1839   Si       0.24045    0.28407    0.04991    1.000
    N1840    N        0.35960    0.25444    0.05508    1.000
    Si1841   Si       0.43558    0.27732    0.08189    1.000
    N1842    N        0.41686    0.28519    0.04418    1.000
    Si1843   Si       0.44346    0.27692    0.00969    1.000
    N1844    N        0.40642    0.25594    0.10804    1.000
    Si1845   Si       0.37297    0.29612    0.04871    1.000
    N1846    N        0.46893    0.25531    0.06723    1.000
    N1847    N        0.47723    0.30639    0.01188    1.000
    N1848    N        0.30166    0.29316    0.12573    1.000
    Si1849   Si       0.30667    0.27841    0.22751    1.000
    Si1850   Si       0.32336    0.28616    0.16418    1.000
    N1851    N        0.29050    0.26834    0.18669    1.000
    N1852    N        0.35499    0.25696    0.15892    1.000
    Si1853   Si       0.25026    0.25678    0.17583    1.000
    N1854    N        0.33829    0.30285    0.20265    1.000
    Si1855   Si       0.45574    0.29869    0.18780    1.000
    N1856    N        0.46007    0.30017    0.23247    1.000
    Si1857   Si       0.39568    0.27335    0.14841    1.000
    N1858    N        0.42995    0.26430    0.17391    1.000
    N1859    N        0.30705    0.26594    0.32521    1.000
    Si1860   Si       0.34278    0.26416    0.29771    1.000
    N1861    N        0.33593    0.28955    0.26264    1.000
    N1862    N        0.24224    0.27589    0.34764    1.000
    N1863    N        0.36531    0.28897    0.32545    1.000
    Si1864   Si       0.43326    0.26538    0.29163    1.000
    Si1865   Si       0.39017    0.26924    0.35705    1.000
    N1866    N        0.47669    0.25979    0.28747    1.000
    N1867    N        0.41945    0.24705    0.32917    1.000
    N1868    N        0.46786    0.26935    0.37184    1.000
    Si1869   Si       0.49306    0.28100    0.25232    1.000
    Si1870   Si       0.34958    0.26864    0.48885    1.000
    N1871    N        0.26455    0.28646    0.42776    1.000
    Si1872   Si       0.28258    0.26113    0.45617    1.000
    Si1873   Si       0.33687    0.27031    0.41176    1.000
    N1874    N        0.32864    0.25064    0.45501    1.000
    N1875    N        0.35757    0.30274    0.43135    1.000
    N1876    N        0.39257    0.26831    0.49201    1.000
    N1877    N        0.40944    0.30295    0.37693    1.000
    N1878    N        0.37263    0.24488    0.39231    1.000
    N1879    N        0.43328    0.25248    0.44206    1.000
    N1880    N        0.48163    0.29049    0.43399    1.000
    Si1881   Si       0.44641    0.29191    0.45766    1.000
    Si1882   Si       0.46786    0.24786    0.41210    1.000
    N1883    N        0.29968    0.28746    0.56076    1.000
    Si1884   Si       0.32157    0.25020    0.56374    1.000
    N1885    N        0.35308    0.25482    0.59410    1.000
    N1886    N        0.34162    0.24776    0.52546    1.000
    N1887    N        0.27036    0.27538    0.49487    1.000
    Si1888   Si       0.29882    0.30031    0.60264    1.000
    Si1889   Si       0.44199    0.29933    0.58339    1.000
    Si1890   Si       0.41404    0.29053    0.52328    1.000
    N1891    N        0.41661    0.27127    0.56255    1.000
    N1892    N        0.46153    0.27854    0.61476    1.000
    N1893    N        0.45233    0.29060    0.49945    1.000
    Si1894   Si       0.48800    0.30200    0.52003    1.000
    Si1895   Si       0.30565    0.24833    0.66341    1.000
    Si1896   Si       0.24705    0.26102    0.63233    1.000
    Si1897   Si       0.35934    0.28171    0.62700    1.000
    N1898    N        0.28193    0.25455    0.70005    1.000
    Si1899   Si       0.25118    0.28506    0.70580    1.000
    N1900    N        0.28801    0.26834    0.62923    1.000
    N1901    N        0.34320    0.27104    0.66629    1.000
    N1902    N        0.34440    0.28312    0.74144    1.000
    N1903    N        0.40001    0.28186    0.64275    1.000
    N1904    N        0.45300    0.24295    0.67263    1.000
    Si1905   Si       0.43398    0.25439    0.63584    1.000
    Si1906   Si       0.38306    0.27862    0.68378    1.000
    N1907    N        0.38634    0.23948    0.70460    1.000
    Si1908   Si       0.48375    0.25516    0.74866    1.000
    N1909    N        0.30324    0.28284    0.83788    1.000
    N1910    N        0.28316    0.26830    0.77101    1.000
    Si1911   Si       0.28413    0.25291    0.81293    1.000
    Si1912   Si       0.33709    0.27051    0.86464    1.000
    Si1913   Si       0.30477    0.30101    0.75161    1.000
    N1914    N        0.36882    0.25920    0.83349    1.000
    N1915    N        0.43523    0.25528    0.81017    1.000
    Si1916   Si       0.40209    0.28245    0.81488    1.000
    Si1917   Si       0.47640    0.25703    0.82603    1.000
    N1918    N        0.47781    0.29789    0.75290    1.000
    N1919    N        0.30277    0.26005    0.96309    1.000
    Si1920   Si       0.31407    0.30195    0.95550    1.000
    Si1921   Si       0.38927    0.27572    0.94574    1.000
    N1922    N        0.41300    0.29745    0.91481    1.000
    N1923    N        0.42243    0.28404    0.97241    1.000
    N1924    N        0.25455    0.32306    0.04194    1.000
    Si1925   Si       0.29748    0.32798    0.02752    1.000
    Si1926   Si       0.32631    0.31660    0.09462    1.000
    N1927    N        0.30626    0.35526    0.10634    1.000
    N1928    N        0.31841    0.30139    0.05453    1.000
    N1929    N        0.37078    0.31756    0.08784    1.000
    N1930    N        0.37373    0.33110    0.02334    1.000
    Si1931   Si       0.40894    0.33085    0.10832    1.000
    N1932    N        0.44751    0.30855    0.10695    1.000
    N1933    N        0.27398    0.30961    0.23923    1.000
    Si1934   Si       0.26475    0.31738    0.13668    1.000
    Si1935   Si       0.28505    0.34419    0.21316    1.000
    N1936    N        0.28321    0.34116    0.17028    1.000
    Si1937   Si       0.35317    0.32550    0.23808    1.000
    N1938    N        0.32473    0.35967    0.22478    1.000
    Si1939   Si       0.40133    0.34046    0.18479    1.000
    Si1940   Si       0.48674    0.31395    0.12671    1.000
    N1941    N        0.44361    0.34128    0.18245    1.000
    N1942    N        0.39369    0.31650    0.14958    1.000
    N1943    N        0.39580    0.32537    0.22562    1.000
    N1944    N        0.48677    0.35742    0.13354    1.000
    N1945    N        0.29273    0.33195    0.32475    1.000
    Si1946   Si       0.25397    0.31660    0.33771    1.000
    N1947    N        0.35130    0.34743    0.33931    1.000
    Si1948   Si       0.32555    0.30682    0.33990    1.000
    N1949    N        0.36327    0.35126    0.27617    1.000
    Si1950   Si       0.38301    0.32945    0.30902    1.000
    N1951    N        0.47054    0.31719    0.32329    1.000
    Si1952   Si       0.45144    0.35406    0.30733    1.000
    N1953    N        0.41372    0.35629    0.32976    1.000
    Si1954   Si       0.45068    0.30767    0.36536    1.000
    N1955    N        0.41833    0.30798    0.28637    1.000
    N1956    N        0.45324    0.36315    0.26352    1.000
    Si1957   Si       0.43178    0.32771    0.24922    1.000
    N1958    N        0.25378    0.33524    0.37752    1.000
    Si1959   Si       0.28394    0.31922    0.40476    1.000
    N1960    N        0.30144    0.34503    0.43529    1.000
    Si1961   Si       0.33577    0.32963    0.45826    1.000
    N1962    N        0.32937    0.30668    0.49476    1.000
    N1963    N        0.31780    0.30273    0.38258    1.000
    N1964    N        0.38673    0.35948    0.40013    1.000
    N1965    N        0.41881    0.32508    0.45064    1.000
    Si1966   Si       0.39386    0.31929    0.41525    1.000
    Si1967   Si       0.40303    0.34909    0.48417    1.000
    N1968    N        0.47381    0.33759    0.38482    1.000
    N1969    N        0.26917    0.32912    0.60514    1.000
    N1970    N        0.27712    0.34303    0.51452    1.000
    Si1971   Si       0.34812    0.35925    0.61511    1.000
    N1972    N        0.33687    0.31852    0.61794    1.000
    Si1973   Si       0.29305    0.30509    0.51960    1.000
    N1974    N        0.41846    0.33574    0.59332    1.000
    N1975    N        0.40060    0.33210    0.52380    1.000
    N1976    N        0.47548    0.31288    0.55938    1.000
    Si1977   Si       0.39934    0.35734    0.56112    1.000
    N1978    N        0.27587    0.31859    0.72109    1.000
    Si1979   Si       0.25200    0.35256    0.70591    1.000
    N1980    N        0.43246    0.35730    0.74051    1.000
    N1981    N        0.44434    0.35624    0.66728    1.000
    Si1982   Si       0.41607    0.35177    0.70085    1.000
    N1983    N        0.39394    0.31429    0.70442    1.000
    N1984    N        0.30874    0.32879    0.78372    1.000
    Si1985   Si       0.29560    0.32500    0.82662    1.000
    N1986    N        0.25281    0.32995    0.83616    1.000
    N1987    N        0.31527    0.34991    0.85672    1.000
    N1988    N        0.36511    0.35556    0.75617    1.000
    N1989    N        0.45708    0.34921    0.79714    1.000
    Si1990   Si       0.45889    0.32740    0.83611    1.000
    Si1991   Si       0.44312    0.32238    0.76410    1.000
    N1992    N        0.41867    0.31170    0.84418    1.000
    N1993    N        0.40438    0.30331    0.77478    1.000
    N1994    N        0.46527    0.36057    0.86244    1.000
    Si1995   Si       0.37493    0.31515    0.74468    1.000
    N1996    N        0.29581    0.31439    0.91781    1.000
    Si1997   Si       0.32637    0.33602    0.89515    1.000
    Si1998   Si       0.25179    0.32051    0.91419    1.000
    N1999    N        0.30390    0.33342    0.98435    1.000
    N2000    N        0.24465    0.36221    0.89863    1.000
    N2001    N        0.35690    0.30322    0.96044    1.000
    N2002    N        0.35614    0.30481    0.88597    1.000
    N2003    N        0.47836    0.31612    0.93935    1.000
    N2004    N        0.41636    0.35098    0.96461    1.000
    Si2005   Si       0.39881    0.31919    0.88159    1.000
    Si2006   Si       0.43654    0.31619    0.94708    1.000
    Si2007   Si       0.37752    0.33764    0.98099    1.000
    Si2008   Si       0.29681    0.38584    0.07391    1.000
    N2009    N        0.25378    0.39070    0.06233    1.000
    Si2010   Si       0.35517    0.37032    0.02958    1.000
    N2011    N        0.31491    0.36549    0.04242    1.000
    N2012    N        0.37147    0.40518    0.05000    1.000
    Si2013   Si       0.40075    0.40719    0.08212    1.000
    N2014    N        0.42269    0.37007    0.09226    1.000
    Si2015   Si       0.46637    0.36938    0.09530    1.000
    N2016    N        0.48836    0.40747    0.09707    1.000
    N2017    N        0.38143    0.41743    0.12159    1.000
    N2018    N        0.25019    0.36943    0.22540    1.000
    Si2019   Si       0.24834    0.41052    0.23786    1.000
    Si2020   Si       0.34500    0.38740    0.19580    1.000
    N2021    N        0.25891    0.40146    0.14653    1.000
    Si2022   Si       0.29390    0.37678    0.14236    1.000
    N2023    N        0.32532    0.40004    0.15752    1.000
    N2024    N        0.34972    0.41651    0.23055    1.000
    N2025    N        0.38443    0.37927    0.18056    1.000
    N2026    N        0.48742    0.39101    0.20552    1.000
    Si2027   Si       0.40078    0.41521    0.16101    1.000
    Si2028   Si       0.46680    0.37491    0.16945    1.000
    N2029    N        0.44371    0.41070    0.15908    1.000
    N2030    N        0.30939    0.39231    0.28994    1.000
    Si2031   Si       0.33884    0.38412    0.26059    1.000
    N2032    N        0.30430    0.40385    0.35349    1.000
    Si2033   Si       0.31417    0.37010    0.32642    1.000
    N2034    N        0.37259    0.41141    0.35682    1.000
    N2035    N        0.47776    0.38239    0.32696    1.000
    Si2036   Si       0.38583    0.37050    0.35870    1.000
    Si2037   Si       0.46726    0.42126    0.34425    1.000
    Si2038   Si       0.48503    0.39023    0.24878    1.000
    N2039    N        0.33296    0.40375    0.41659    1.000
    N2040    N        0.25913    0.39186    0.40851    1.000
    Si2041   Si       0.29687    0.38675    0.43096    1.000
    N2042    N        0.27718    0.40537    0.46542    1.000
    Si2043   Si       0.37117    0.38704    0.43181    1.000
    Si2044   Si       0.42925    0.41767    0.47388    1.000
    N2045    N        0.40185    0.41719    0.44013    1.000
    N2046    N        0.36247    0.36372    0.46647    1.000
    N2047    N        0.45462    0.41310    0.38494    1.000
    Si2048   Si       0.48010    0.36394    0.48347    1.000
    Si2049   Si       0.48402    0.39914    0.41596    1.000
    N2050    N        0.48768    0.36593    0.44131    1.000
    N2051    N        0.43781    0.37639    0.48677    1.000
    Si2052   Si       0.33671    0.41082    0.57383    1.000
    N2053    N        0.35815    0.37159    0.57394    1.000
    N2054    N        0.24675    0.40248    0.52983    1.000
    N2055    N        0.24681    0.39078    0.59924    1.000
    N2056    N        0.31287    0.38433    0.62170    1.000
    Si2057   Si       0.25956    0.37745    0.49645    1.000
    N2058    N        0.42165    0.39325    0.55800    1.000
    Si2059   Si       0.46059    0.40002    0.57395    1.000
    N2060    N        0.45224    0.39229    0.61704    1.000
    Si2061   Si       0.27328    0.36686    0.62378    1.000
    N2062    N        0.30537    0.38761    0.73711    1.000
    Si2063   Si       0.27052    0.41640    0.74130    1.000
    N2064    N        0.26315    0.36146    0.66464    1.000
    Si2065   Si       0.32846    0.42144    0.71670    1.000
    Si2066   Si       0.42372    0.36099    0.62754    1.000
    N2067    N        0.48230    0.40838    0.74681    1.000
    N2068    N        0.39227    0.38684    0.70277    1.000
    N2069    N        0.38279    0.37405    0.63640    1.000
    Si2070   Si       0.38123    0.40560    0.66584    1.000
    Si2071   Si       0.47343    0.38721    0.65572    1.000
    N2072    N        0.32769    0.39698    0.80237    1.000
    Si2073   Si       0.31766    0.39268    0.84482    1.000
    N2074    N        0.27417    0.40065    0.84496    1.000
    Si2075   Si       0.32519    0.36788    0.76942    1.000
    N2076    N        0.35019    0.40781    0.86477    1.000
    Si2077   Si       0.24653    0.36832    0.85563    1.000
    N2078    N        0.24965    0.41187    0.77989    1.000
    Si2079   Si       0.45291    0.38824    0.77474    1.000
    N2080    N        0.41764    0.41500    0.77066    1.000
    N2081    N        0.47716    0.41089    0.81011    1.000
    N2082    N        0.42095    0.41615    0.85623    1.000
    Si2083   Si       0.39458    0.38681    0.74720    1.000
    Si2084   Si       0.31900    0.37095    0.96456    1.000
    N2085    N        0.29195    0.40292    0.97362    1.000
    N2086    N        0.35769    0.37759    0.98595    1.000
    N2087    N        0.33477    0.36649    0.92398    1.000
    Si2088   Si       0.36548    0.39110    0.90177    1.000
    N2089    N        0.44775    0.40307    0.92481    1.000
    N2090    N        0.41638    0.41689    0.98621    1.000
    N2091    N        0.48085    0.38168    0.98804    1.000
    N2092    N        0.40000    0.36260    0.89136    1.000
    Si2093   Si       0.43745    0.38592    0.88509    1.000
    Si2094   Si       0.44174    0.38747    0.96641    1.000
    Si2095   Si       0.37483    0.41436    0.97128    1.000
    N2096    N        0.25797    0.45608    0.08154    1.000
    Si2097   Si       0.35382    0.44091    0.03060    1.000
    Si2098   Si       0.30116    0.45981    0.07373    1.000
    N2099    N        0.31054    0.44363    0.03309    1.000
    N2100    N        0.24311    0.43624    0.01419    1.000
    Si2101   Si       0.28387    0.43663    0.00133    1.000
    N2102    N        0.31309    0.42162    0.09319    1.000
    N2103    N        0.37113    0.47346    0.05373    1.000
    Si2104   Si       0.46632    0.44458    0.08784    1.000
    N2105    N        0.42813    0.43867    0.07096    1.000
    Si2106   Si       0.41395    0.47597    0.05381    1.000
    N2107    N        0.33562    0.47281    0.13006    1.000
    Si2108   Si       0.34053    0.42876    0.12603    1.000
    Si2109   Si       0.25058    0.43958    0.16767    1.000
    Si2110   Si       0.31101    0.45251    0.21939    1.000
    N2111    N        0.28860    0.46044    0.18238    1.000
    N2112    N        0.34520    0.47859    0.22675    1.000
    N2113    N        0.46356    0.46741    0.12506    1.000
    Si2114   Si       0.46677    0.44775    0.16335    1.000
    N2115    N        0.45866    0.47919    0.19160    1.000
    Si2116   Si       0.37835    0.44946    0.22846    1.000
    N2117    N        0.39816    0.44842    0.18956    1.000
    N2118    N        0.26757    0.45240    0.31813    1.000
    N2119    N        0.33112    0.45447    0.28996    1.000
    Si2120   Si       0.29285    0.43298    0.28983    1.000
    Si2121   Si       0.26636    0.42594    0.35338    1.000
    N2122    N        0.28396    0.43294    0.24562    1.000
    Si2123   Si       0.39893    0.44345    0.34683    1.000
    Si2124   Si       0.44059    0.45486    0.28370    1.000
    N2125    N        0.40067    0.45806    0.26536    1.000
    N2126    N        0.43275    0.43474    0.32145    1.000
    N2127    N        0.47612    0.43042    0.26884    1.000
    Si2128   Si       0.36773    0.47574    0.28735    1.000
    N2129    N        0.38060    0.47813    0.32930    1.000
    Si2130   Si       0.28598    0.45076    0.46918    1.000
    N2131    N        0.33309    0.46663    0.38177    1.000
    N2132    N        0.26156    0.45669    0.38272    1.000
    Si2133   Si       0.33532    0.42350    0.37579    1.000
    N2134    N        0.24521    0.46603    0.47321    1.000
    N2135    N        0.30308    0.48002    0.44137    1.000
    N2136    N        0.35873    0.47867    0.48617    1.000
    N2137    N        0.46243    0.42623    0.44417    1.000
    Si2138   Si       0.42963    0.43739    0.41198    1.000
    N2139    N        0.40498    0.46184    0.38795    1.000
    N2140    N        0.48516    0.46999    0.49274    1.000
    Si2141   Si       0.27206    0.43944    0.53775    1.000
    Si2142   Si       0.34138    0.46147    0.52250    1.000
    N2143    N        0.30185    0.45050    0.50906    1.000
    N2144    N        0.34937    0.43679    0.60771    1.000
    Si2145   Si       0.26354    0.43031    0.60151    1.000
    N2146    N        0.29513    0.42827    0.57177    1.000
    N2147    N        0.36030    0.42596    0.54044    1.000
    Si2148   Si       0.36733    0.47414    0.59265    1.000
    N2149    N        0.24951    0.47657    0.54131    1.000
    N2150    N        0.40455    0.46325    0.57627    1.000
    N2151    N        0.46605    0.44404    0.55874    1.000
    Si2152   Si       0.40330    0.43066    0.54486    1.000
    N2153    N        0.41778    0.44328    0.50598    1.000
    Si2154   Si       0.44688    0.47516    0.58239    1.000
    N2155    N        0.46421    0.46661    0.62100    1.000
    N2156    N        0.28323    0.44672    0.63648    1.000
    N2157    N        0.29402    0.44721    0.72204    1.000
    Si2158   Si       0.32007    0.42321    0.63672    1.000
    N2159    N        0.33892    0.41905    0.67559    1.000
    N2160    N        0.47489    0.42692    0.67958    1.000
    Si2161   Si       0.44563    0.45354    0.65859    1.000
    Si2162   Si       0.46789    0.44210    0.72316    1.000
    N2163    N        0.40753    0.43894    0.65711    1.000
    N2164    N        0.42732    0.45922    0.72324    1.000
    Si2165   Si       0.33797    0.43593    0.79083    1.000
    N2166    N        0.30125    0.45821    0.79780    1.000
    Si2167   Si       0.26567    0.43189    0.81374    1.000
    N2168    N        0.24459    0.45998    0.83841    1.000
    N2169    N        0.35681    0.43036    0.74955    1.000
    N2170    N        0.36783    0.45468    0.81463    1.000
    Si2171   Si       0.37985    0.43550    0.85185    1.000
    Si2172   Si       0.45656    0.43613    0.84111    1.000
    Si2173   Si       0.39588    0.45160    0.75314    1.000
    N2174    N        0.44720    0.47943    0.83984    1.000
    N2175    N        0.48951    0.47080    0.74803    1.000
    N2176    N        0.48369    0.42287    0.87382    1.000
    Si2177   Si       0.26595    0.46990    0.87665    1.000
    N2178    N        0.35760    0.45091    0.98871    1.000
    Si2179   Si       0.27358    0.42979    0.94417    1.000
    N2180    N        0.28193    0.43956    0.90292    1.000
    N2181    N        0.29222    0.46539    0.96766    1.000
    Si2182   Si       0.47483    0.43488    0.91550    1.000
    N2183    N        0.47985    0.47839    0.91738    1.000
    Si2184   Si       0.43068    0.45924    0.98487    1.000
    N2185    N        0.38789    0.46868    0.87967    1.000
    N2186    N        0.37183    0.42301    0.92960    1.000
    N2187    N        0.41671    0.47460    0.94577    1.000
    Si2188   Si       0.38074    0.46657    0.92228    1.000
    N2189    N        0.47320    0.45078    0.98821    1.000
    N2190    N        0.30893    0.50416    0.06808    1.000
    Si2191   Si       0.34608    0.50964    0.04548    1.000
    N2192    N        0.24696    0.52728    0.03362    1.000
    N2193    N        0.33204    0.51672    0.00164    1.000
    Si2194   Si       0.28241    0.53756    0.05999    1.000
    N2195    N        0.42925    0.48974    0.01522    1.000
    N2196    N        0.42695    0.50660    0.08060    1.000
    Si2197   Si       0.45755    0.52298    0.00625    1.000
    N2198    N        0.26715    0.49997    0.13334    1.000
    N2199    N        0.33787    0.51979    0.17219    1.000
    Si2200   Si       0.35502    0.51710    0.21219    1.000
    Si2201   Si       0.30512    0.48994    0.15640    1.000
    Si2202   Si       0.36293    0.50790    0.13441    1.000
    N2203    N        0.40352    0.50481    0.14287    1.000
    Si2204   Si       0.44200    0.50640    0.12176    1.000
    Si2205   Si       0.41596    0.48772    0.18583    1.000
    Si2206   Si       0.48704    0.51088    0.19627    1.000
    N2207    N        0.47083    0.53791    0.13351    1.000
    N2208    N        0.39918    0.51646    0.21317    1.000
    N2209    N        0.25598    0.53111    0.30841    1.000
    Si2210   Si       0.24339    0.49013    0.31618    1.000
    N2211    N        0.37430    0.51786    0.28433    1.000
    Si2212   Si       0.47011    0.52586    0.31959    1.000
    Si2213   Si       0.39041    0.51969    0.32474    1.000
    N2214    N        0.38088    0.53116    0.36466    1.000
    N2215    N        0.46824    0.48787    0.29614    1.000
    N2216    N        0.48607    0.51196    0.35799    1.000
    Si2217   Si       0.33893    0.50173    0.45608    1.000
    N2218    N        0.29072    0.52163    0.38717    1.000
    Si2219   Si       0.29653    0.48058    0.39851    1.000
    N2220    N        0.25905    0.53812    0.49480    1.000
    Si2221   Si       0.37214    0.49151    0.38331    1.000
    N2222    N        0.42654    0.49804    0.46176    1.000
    Si2223   Si       0.40844    0.52542    0.43295    1.000
    N2224    N        0.48596    0.49524    0.42723    1.000
    Si2225   Si       0.47997    0.52864    0.39948    1.000
    Si2226   Si       0.46828    0.50329    0.46826    1.000
    N2227    N        0.43830    0.53387    0.40219    1.000
    N2228    N        0.36938    0.50524    0.42466    1.000
    Si2229   Si       0.40209    0.48208    0.49490    1.000
    N2230    N        0.25914    0.50957    0.61353    1.000
    N2231    N        0.34539    0.48857    0.55723    1.000
    Si2232   Si       0.35790    0.52811    0.54447    1.000
    N2233    N        0.39580    0.51320    0.52321    1.000
    N2234    N        0.44937    0.51431    0.56803    1.000
    Si2235   Si       0.48904    0.52995    0.57935    1.000
    N2236    N        0.24721    0.49878    0.73783    1.000
    N2237    N        0.31861    0.51516    0.72651    1.000
    N2238    N        0.27855    0.50601    0.67918    1.000
    Si2239   Si       0.28495    0.48846    0.71848    1.000
    Si2240   Si       0.25887    0.48175    0.64926    1.000
    N2241    N        0.45816    0.49153    0.67640    1.000
    Si2242   Si       0.42906    0.49811    0.70497    1.000
    N2243    N        0.44939    0.52795    0.73199    1.000
    Si2244   Si       0.36892    0.52820    0.65917    1.000
    Si2245   Si       0.36240    0.52004    0.73199    1.000
    Si2246   Si       0.49047    0.49410    0.64440    1.000
    N2247    N        0.38772    0.51269    0.69564    1.000
    N2248    N        0.36670    0.50246    0.62565    1.000
    N2249    N        0.26516    0.52618    0.80302    1.000
    N2250    N        0.33308    0.51968    0.79840    1.000
    Si2251   Si       0.29831    0.49849    0.81376    1.000
    N2252    N        0.29289    0.50041    0.85857    1.000
    Si2253   Si       0.37120    0.49787    0.80322    1.000
    N2254    N        0.39219    0.51892    0.83505    1.000
    Si2255   Si       0.41584    0.49695    0.86367    1.000
    N2256    N        0.38261    0.49351    0.76028    1.000
    N2257    N        0.47816    0.53072    0.79642    1.000
    Si2258   Si       0.48302    0.50126    0.82730    1.000
    Si2259   Si       0.48687    0.51484    0.75414    1.000
    N2260    N        0.35137    0.49470    0.93405    1.000
    Si2261   Si       0.35257    0.53645    0.92259    1.000
    Si2262   Si       0.33344    0.48484    0.97334    1.000
    N2263    N        0.45153    0.53079    0.96409    1.000
    N2264    N        0.43421    0.52055    0.89415    1.000
    Si2265   Si       0.44636    0.50237    0.93057    1.000
    N2266    N        0.30464    0.56761    0.03908    1.000
    N2267    N        0.25375    0.55155    0.08961    1.000
    N2268    N        0.34526    0.59321    0.00213    1.000
    Si2269   Si       0.36673    0.56978    0.08500    1.000
    N2270    N        0.44752    0.55306    0.03619    1.000
    N2271    N        0.40879    0.57508    0.09353    1.000
    Si2272   Si       0.46785    0.58805    0.05077    1.000
    Si2273   Si       0.41537    0.54332    0.06434    1.000
    N2274    N        0.37262    0.54288    0.05234    1.000
    N2275    N        0.35032    0.54777    0.11842    1.000
    Si2276   Si       0.35710    0.59125    0.21392    1.000
    N2277    N        0.28658    0.56214    0.15543    1.000
    N2278    N        0.34540    0.55442    0.23232    1.000
    Si2279   Si       0.32944    0.55831    0.15555    1.000
    Si2280   Si       0.25451    0.54227    0.13344    1.000
    Si2281   Si       0.24660    0.59392    0.24462    1.000
    N2282    N        0.43794    0.59952    0.15328    1.000
    N2283    N        0.39993    0.58622    0.20629    1.000
    Si2284   Si       0.46714    0.56987    0.16226    1.000
    Si2285   Si       0.42210    0.55201    0.22187    1.000
    N2286    N        0.45701    0.54332    0.19676    1.000
    Si2287   Si       0.27979    0.56548    0.31360    1.000
    Si2288   Si       0.35177    0.55385    0.27599    1.000
    N2289    N        0.28084    0.58459    0.35321    1.000
    N2290    N        0.31989    0.56038    0.30115    1.000
    Si2291   Si       0.48754    0.55064    0.25714    1.000
    Si2292   Si       0.42590    0.58075    0.29184    1.000
    N2293    N        0.38213    0.58393    0.28639    1.000
    N2294    N        0.44239    0.54936    0.26211    1.000
    Si2295   Si       0.41679    0.55685    0.36896    1.000
    N2296    N        0.43042    0.54644    0.32639    1.000
    Si2297   Si       0.29967    0.55232    0.49758    1.000
    Si2298   Si       0.27761    0.56183    0.38926    1.000
    N2299    N        0.29453    0.58816    0.42031    1.000
    N2300    N        0.33188    0.54354    0.46882    1.000
    Si2301   Si       0.35787    0.57846    0.46118    1.000
    N2302    N        0.30002    0.59603    0.49056    1.000
    N2303    N        0.39703    0.56392    0.44708    1.000
    N2304    N        0.48397    0.53918    0.48315    1.000
    N2305    N        0.41126    0.59492    0.38572    1.000
    Si2306   Si       0.29411    0.57169    0.56631    1.000
    N2307    N        0.25275    0.56420    0.56874    1.000
    N2308    N        0.29878    0.57611    0.60789    1.000
    Si2309   Si       0.26059    0.55222    0.61182    1.000
    N2310    N        0.31747    0.54713    0.53798    1.000
    Si2311   Si       0.42028    0.53844    0.54818    1.000
    N2312    N        0.43228    0.57206    0.52292    1.000
    N2313    N        0.38448    0.55261    0.57071    1.000
    Si2314   Si       0.47695    0.56937    0.51590    1.000
    Si2315   Si       0.38833    0.57840    0.60515    1.000
    N2316    N        0.43120    0.59020    0.60539    1.000
    N2317    N        0.48786    0.56707    0.55843    1.000
    N2318    N        0.36666    0.59749    0.50143    1.000
    N2319    N        0.27308    0.57509    0.70304    1.000
    N2320    N        0.33219    0.55110    0.66811    1.000
    Si2321   Si       0.24184    0.59007    0.67552    1.000
    Si2322   Si       0.30019    0.54104    0.69417    1.000
    Si2323   Si       0.34979    0.59009    0.65965    1.000
    Si2324   Si       0.44745    0.56941    0.71853    1.000
    N2325    N        0.48117    0.58325    0.74036    1.000
    N2326    N        0.38863    0.56970    0.64796    1.000
    N2327    N        0.45766    0.57213    0.67561    1.000
    Si2328   Si       0.42720    0.59194    0.65003    1.000
    N2329    N        0.41800    0.60154    0.71872    1.000
    N2330    N        0.28019    0.57343    0.85224    1.000
    Si2331   Si       0.33695    0.56154    0.78290    1.000
    N2332    N        0.30432    0.58452    0.76883    1.000
    N2333    N        0.35831    0.57808    0.81770    1.000
    Si2334   Si       0.24736    0.55564    0.82944    1.000
    Si2335   Si       0.37078    0.55384    0.85221    1.000
    Si2336   Si       0.46705    0.56972    0.80795    1.000
    N2337    N        0.46864    0.56740    0.85152    1.000
    N2338    N        0.42858    0.58354    0.79693    1.000
    N2339    N        0.36543    0.55970    0.74913    1.000
    N2340    N        0.39938    0.58046    0.86844    1.000
    N2341    N        0.27050    0.57173    0.97734    1.000
    Si2342   Si       0.28690    0.56895    0.93729    1.000
    N2343    N        0.32823    0.56123    0.94876    1.000
    N2344    N        0.33965    0.54262    0.88218    1.000
    Si2345   Si       0.31676    0.55870    0.99636    1.000
    N2346    N        0.27007    0.53949    0.91116    1.000
    Si2347   Si       0.29618    0.53949    0.87522    1.000
    N2348    N        0.38828    0.55425    0.93754    1.000
    N2349    N        0.44920    0.58265    0.91709    1.000
    Si2350   Si       0.43721    0.56355    0.88094    1.000
    Si2351   Si       0.36825    0.58989    0.96251    1.000
    Si2352   Si       0.42813    0.56640    0.95320    1.000
    N2353    N        0.30507    0.64395    0.04280    1.000
    Si2354   Si       0.26099    0.64404    0.05345    1.000
    N2355    N        0.35208    0.60896    0.07542    1.000
    N2356    N        0.24762    0.62141    0.08684    1.000
    N2357    N        0.24941    0.63485    0.01241    1.000
    Si2358   Si       0.32811    0.60619    0.03984    1.000
    Si2359   Si       0.25276    0.65031    0.12025    1.000
    Si2360   Si       0.36190    0.64880    0.09316    1.000
    N2361    N        0.45245    0.62376    0.02891    1.000
    N2362    N        0.40248    0.64273    0.11109    1.000
    Si2363   Si       0.42930    0.60710    0.11233    1.000
    N2364    N        0.46757    0.60661    0.09306    1.000
    Si2365   Si       0.28803    0.60081    0.17660    1.000
    Si2366   Si       0.30617    0.63633    0.23079    1.000
    Si2367   Si       0.34408    0.64411    0.16870    1.000
    N2368    N        0.27366    0.63093    0.15092    1.000
    N2369    N        0.27984    0.60409    0.21783    1.000
    N2370    N        0.33489    0.59963    0.17530    1.000
    N2371    N        0.34706    0.61971    0.24493    1.000
    N2372    N        0.45681    0.63834    0.20186    1.000
    Si2373   Si       0.41848    0.62081    0.18751    1.000
    N2374    N        0.38451    0.65059    0.18597    1.000
    Si2375   Si       0.47373    0.62251    0.23989    1.000
    Si2376   Si       0.29055    0.63146    0.29994    1.000
    N2377    N        0.33477    0.63446    0.31011    1.000
    N2378    N        0.27489    0.65229    0.33495    1.000
    Si2379   Si       0.34010    0.65559    0.34703    1.000
    N2380    N        0.28882    0.65590    0.26507    1.000
    Si2381   Si       0.28108    0.62497    0.37060    1.000
    N2382    N        0.26699    0.59758    0.28548    1.000
    Si2383   Si       0.36765    0.62403    0.28403    1.000
    Si2384   Si       0.41906    0.62756    0.35921    1.000
    N2385    N        0.43767    0.61198    0.26027    1.000
    N2386    N        0.43459    0.61180    0.32207    1.000
    Si2387   Si       0.44123    0.64505    0.29081    1.000
    N2388    N        0.48235    0.65080    0.27194    1.000
    N2389    N        0.38479    0.65356    0.35094    1.000
    N2390    N        0.24031    0.60553    0.45777    1.000
    N2391    N        0.24566    0.63434    0.39405    1.000
    N2392    N        0.32256    0.63339    0.37966    1.000
    Si2393   Si       0.28216    0.61235    0.45217    1.000
    N2394    N        0.30718    0.64886    0.44541    1.000
    Si2395   Si       0.34019    0.64674    0.41670    1.000
    N2396    N        0.45242    0.64961    0.37833    1.000
    N2397    N        0.44728    0.62415    0.44196    1.000
    Si2398   Si       0.46477    0.63122    0.48147    1.000
    N2399    N        0.36601    0.61660    0.43591    1.000
    Si2400   Si       0.41002    0.60251    0.42963    1.000
    N2401    N        0.31045    0.61223    0.55654    1.000
    Si2402   Si       0.31602    0.61818    0.60724    1.000
    Si2403   Si       0.32884    0.61454    0.51556    1.000
    N2404    N        0.35975    0.61145    0.60988    1.000
    N2405    N        0.28297    0.64889    0.60452    1.000
    N2406    N        0.39023    0.63592    0.54956    1.000
    N2407    N        0.48175    0.63709    0.57016    1.000
    Si2408   Si       0.40359    0.60531    0.52070    1.000
    N2409    N        0.43162    0.63901    0.50823    1.000
    Si2410   Si       0.37715    0.64764    0.58865    1.000
    Si2411   Si       0.47037    0.59761    0.58660    1.000
    Si2412   Si       0.28437    0.60253    0.73532    1.000
    N2413    N        0.24519    0.63027    0.66063    1.000
    N2414    N        0.30073    0.64186    0.72116    1.000
    Si2415   Si       0.33223    0.64395    0.69093    1.000
    N2416    N        0.31536    0.62597    0.65406    1.000
    N2417    N        0.35795    0.61044    0.69701    1.000
    Si2418   Si       0.27998    0.65158    0.64843    1.000
    Si2419   Si       0.37832    0.60112    0.73475    1.000
    N2420    N        0.42477    0.63239    0.66111    1.000
    N2421    N        0.48000    0.63950    0.70285    1.000
    Si2422   Si       0.43370    0.63750    0.70356    1.000
    N2423    N        0.28537    0.64467    0.85428    1.000
    N2424    N        0.25130    0.62677    0.75890    1.000
    Si2425   Si       0.26955    0.61068    0.87454    1.000
    N2426    N        0.37734    0.62611    0.76725    1.000
    N2427    N        0.39709    0.63541    0.83103    1.000
    Si2428   Si       0.48270    0.64690    0.81121    1.000
    Si2429   Si       0.39234    0.60360    0.80113    1.000
    N2430    N        0.46923    0.65126    0.76978    1.000
    Si2431   Si       0.38653    0.62339    0.87065    1.000
    N2432    N        0.34615    0.63946    0.88066    1.000
    Si2433   Si       0.32388    0.63407    0.91950    1.000
    N2434    N        0.35535    0.62795    0.94824    1.000
    N2435    N        0.29123    0.60475    0.91249    1.000
    Si2436   Si       0.24208    0.60565    0.98122    1.000
    Si2437   Si       0.43243    0.63285    0.99210    1.000
    N2438    N        0.41657    0.64010    0.89958    1.000
    N2439    N        0.46270    0.63801    0.96160    1.000
    Si2440   Si       0.45205    0.62719    0.92136    1.000
    N2441    N        0.48593    0.64171    0.89553    1.000
    N2442    N        0.41171    0.59702    0.97712    1.000
    Si2443   Si       0.32723    0.68163    0.03639    1.000
    N2444    N        0.27860    0.67893    0.09655    1.000
    Si2445   Si       0.25939    0.71247    0.06909    1.000
    N2446    N        0.30026    0.71513    0.04566    1.000
    N2447    N        0.36354    0.68220    0.06253    1.000
    Si2448   Si       0.42578    0.68001    0.10868    1.000
    N2449    N        0.43406    0.67970    0.06585    1.000
    N2450    N        0.47208    0.68368    0.00935    1.000
    Si2451   Si       0.46725    0.66102    0.04641    1.000
    Si2452   Si       0.39602    0.71398    0.06144    1.000
    N2453    N        0.40192    0.71381    0.10821    1.000
    Si2454   Si       0.31216    0.69424    0.12128    1.000
    N2455    N        0.25742    0.69724    0.22329    1.000
    Si2456   Si       0.29341    0.70072    0.19740    1.000
    N2457    N        0.28809    0.70628    0.15571    1.000
    N2458    N        0.31755    0.66476    0.19997    1.000
    N2459    N        0.33936    0.66060    0.12872    1.000
    Si2460   Si       0.24902    0.71496    0.14039    1.000
    Si2461   Si       0.46319    0.67168    0.17399    1.000
    N2462    N        0.43464    0.70055    0.18847    1.000
    N2463    N        0.46066    0.66794    0.12964    1.000
    N2464    N        0.37801    0.70943    0.22977    1.000
    Si2465   Si       0.39238    0.69292    0.19244    1.000
    N2466    N        0.32256    0.69575    0.34824    1.000
    Si2467   Si       0.28033    0.69818    0.33768    1.000
    Si2468   Si       0.25835    0.68416    0.26491    1.000
    N2469    N        0.27399    0.71265    0.29438    1.000
    Si2470   Si       0.39930    0.69844    0.26448    1.000
    Si2471   Si       0.40221    0.68567    0.32695    1.000
    N2472    N        0.44694    0.68128    0.31848    1.000
    Si2473   Si       0.47388    0.67503    0.35122    1.000
    N2474    N        0.39643    0.65916    0.28341    1.000
    N2475    N        0.44153    0.70895    0.26016    1.000
    N2476    N        0.28343    0.70311    0.41581    1.000
    N2477    N        0.26133    0.69462    0.47591    1.000
    Si2478   Si       0.29855    0.68847    0.45539    1.000
    N2479    N        0.35078    0.68747    0.40526    1.000
    Si2480   Si       0.31604    0.71560    0.38974    1.000
    N2481    N        0.48576    0.71318    0.36906    1.000
    Si2482   Si       0.41042    0.70978    0.46009    1.000
    Si2483   Si       0.45367    0.66139    0.42016    1.000
    N2484    N        0.48811    0.66802    0.49190    1.000
    Si2485   Si       0.39032    0.71103    0.40246    1.000
    N2486    N        0.38862    0.69097    0.49182    1.000
    N2487    N        0.41970    0.68611    0.42547    1.000
    N2488    N        0.49205    0.68245    0.42585    1.000
    N2489    N        0.33948    0.67088    0.58601    1.000
    N2490    N        0.26776    0.67399    0.54848    1.000
    Si2491   Si       0.34650    0.69719    0.50602    1.000
    Si2492   Si       0.24712    0.66904    0.58787    1.000
    Si2493   Si       0.24623    0.69548    0.51769    1.000
    N2494    N        0.33005    0.65821    0.51803    1.000
    Si2495   Si       0.30790    0.65842    0.55845    1.000
    Si2496   Si       0.35073    0.71156    0.57580    1.000
    N2497    N        0.38849    0.70157    0.55478    1.000
    Si2498   Si       0.42575    0.70300    0.57696    1.000
    Si2499   Si       0.40792    0.67013    0.52653    1.000
    N2500    N        0.45046    0.69557    0.54031    1.000
    N2501    N        0.41217    0.67188    0.60396    1.000
    Si2502   Si       0.48549    0.66652    0.53686    1.000
    N2503    N        0.35498    0.67929    0.69358    1.000
    N2504    N        0.28245    0.69240    0.66136    1.000
    Si2505   Si       0.26862    0.66660    0.73967    1.000
    Si2506   Si       0.34300    0.71141    0.72018    1.000
    N2507    N        0.42182    0.67522    0.71967    1.000
    N2508    N        0.48001    0.67019    0.63714    1.000
    Si2509   Si       0.43668    0.66991    0.63981    1.000
    Si2510   Si       0.39678    0.69842    0.69359    1.000
    N2511    N        0.42006    0.70688    0.65796    1.000
    Si2512   Si       0.31623    0.70178    0.78847    1.000
    N2513    N        0.27676    0.69363    0.77060    1.000
    N2514    N        0.33664    0.67192    0.81436    1.000
    Si2515   Si       0.25203    0.67404    0.84935    1.000
    N2516    N        0.34798    0.69386    0.75909    1.000
    Si2517   Si       0.32422    0.66411    0.85379    1.000
    N2518    N        0.26560    0.71212    0.83433    1.000
    Si2519   Si       0.36981    0.66696    0.78395    1.000
    Si2520   Si       0.44169    0.68516    0.75792    1.000
    N2521    N        0.41073    0.68480    0.78754    1.000
    N2522    N        0.39436    0.69536    0.85986    1.000
    Si2523   Si       0.41756    0.67480    0.82888    1.000
    N2524    N        0.45824    0.67230    0.83907    1.000
    Si2525   Si       0.47691    0.68011    0.87851    1.000
    N2526    N        0.31571    0.70478    0.87607    1.000
    Si2527   Si       0.30948    0.69720    0.96508    1.000
    N2528    N        0.30040    0.67079    0.93254    1.000
    Si2529   Si       0.28108    0.69964    0.90628    1.000
    N2530    N        0.26892    0.70081    0.98296    1.000
    N2531    N        0.33950    0.68293    0.99261    1.000
    N2532    N        0.24429    0.67946    0.89166    1.000
    Si2533   Si       0.43508    0.70335    0.99699    1.000
    N2534    N        0.40744    0.66854    0.98913    1.000
    N2535    N        0.44695    0.69836    0.90553    1.000
    Si2536   Si       0.40736    0.68087    0.89890    1.000
    N2537    N        0.37579    0.68970    0.92835    1.000
    Si2538   Si       0.37116    0.66605    0.96519    1.000
    Si2539   Si       0.32584    0.74439    0.06930    1.000
    Si2540   Si       0.27792    0.73093    0.01173    1.000
    N2541    N        0.33192    0.73100    0.11073    1.000
    N2542    N        0.24329    0.74206    0.03629    1.000
    N2543    N        0.24896    0.73597    0.10319    1.000
    N2544    N        0.30234    0.76458    0.99559    1.000
    N2545    N        0.36868    0.75138    0.06388    1.000
    N2546    N        0.41932    0.73065    0.02745    1.000
    Si2547   Si       0.44568    0.76563    0.03445    1.000
    N2548    N        0.48924    0.76010    0.04329    1.000
    N2549    N        0.31332    0.73738    0.21406    1.000
    Si2550   Si       0.35489    0.74110    0.20895    1.000
    Si2551   Si       0.29191    0.76850    0.23510    1.000
    N2552    N        0.24697    0.75848    0.24315    1.000
    N2553    N        0.36936    0.72295    0.16876    1.000
    Si2554   Si       0.37287    0.73853    0.12731    1.000
    Si2555   Si       0.44988    0.72618    0.22145    1.000
    N2556    N        0.43096    0.76615    0.22383    1.000
    Si2557   Si       0.25962    0.75237    0.28641    1.000
    N2558    N        0.28649    0.74721    0.36157    1.000
    Si2559   Si       0.24449    0.74806    0.35533    1.000
    Si2560   Si       0.40580    0.75005    0.32963    1.000
    N2561    N        0.44938    0.75236    0.32297    1.000
    N2562    N        0.39023    0.72121    0.30121    1.000
    Si2563   Si       0.46443    0.75138    0.36755    1.000
    Si2564   Si       0.46222    0.71759    0.29723    1.000
    N2565    N        0.40473    0.71708    0.36219    1.000
    N2566    N        0.33045    0.75395    0.40551    1.000
    Si2567   Si       0.34831    0.74783    0.44544    1.000
    N2568    N        0.24698    0.75373    0.45358    1.000
    N2569    N        0.32917    0.71587    0.46754    1.000
    Si2570   Si       0.24606    0.71320    0.43747    1.000
    Si2571   Si       0.25176    0.77165    0.49341    1.000
    N2572    N        0.44465    0.76984    0.40295    1.000
    N2573    N        0.44407    0.73192    0.47364    1.000
    N2574    N        0.38829    0.73932    0.43733    1.000
    Si2575   Si       0.45039    0.76730    0.44710    1.000
    N2576    N        0.49133    0.77275    0.45837    1.000
    N2577    N        0.34966    0.74227    0.60527    1.000
    Si2578   Si       0.29552    0.75153    0.53813    1.000
    N2579    N        0.25492    0.73732    0.52845    1.000
    N2580    N        0.28606    0.76017    0.57870    1.000
    N2581    N        0.32678    0.72221    0.53818    1.000
    Si2582   Si       0.31323    0.76601    0.61240    1.000
    Si2583   Si       0.24441    0.74533    0.57156    1.000
    N2584    N        0.43518    0.73992    0.59631    1.000
    Si2585   Si       0.45795    0.73245    0.51627    1.000
    N2586    N        0.44197    0.77114    0.52981    1.000
    N2587    N        0.24567    0.74703    0.69629    1.000
    N2588    N        0.29227    0.76674    0.65173    1.000
    Si2589   Si       0.27283    0.75819    0.72989    1.000
    N2590    N        0.30375    0.72858    0.71377    1.000
    Si2591   Si       0.28082    0.73149    0.67617    1.000
    N2592    N        0.46565    0.72231    0.74983    1.000
    Si2593   Si       0.43029    0.74531    0.63902    1.000
    N2594    N        0.47044    0.75963    0.64722    1.000
    N2595    N        0.38128    0.73405    0.71375    1.000
    Si2596   Si       0.45902    0.76800    0.74258    1.000
    Si2597   Si       0.38497    0.76887    0.74047    1.000
    N2598    N        0.32008    0.74049    0.81281    1.000
    Si2599   Si       0.29800    0.73648    0.84940    1.000
    N2600    N        0.25643    0.75691    0.76772    1.000
    Si2601   Si       0.24915    0.72000    0.79208    1.000
    Si2602   Si       0.34870    0.77052    0.80600    1.000
    N2603    N        0.28558    0.77504    0.86331    1.000
    Si2604   Si       0.39798    0.73827    0.85806    1.000
    N2605    N        0.38839    0.76066    0.82237    1.000
    N2606    N        0.43635    0.75276    0.87157    1.000
    Si2607   Si       0.31627    0.77292    0.95436    1.000
    N2608    N        0.32300    0.73121    0.93909    1.000
    N2609    N        0.25687    0.73707    0.91074    1.000
    Si2610   Si       0.34658    0.71476    0.90668    1.000
    N2611    N        0.36856    0.74985    0.88924    1.000
    Si2612   Si       0.44566    0.74033    0.91738    1.000
    N2613    N        0.45298    0.72550    0.96445    1.000
    N2614    N        0.41901    0.77173    0.93471    1.000
    N2615    N        0.48907    0.74797    0.91434    1.000
    Si2616   Si       0.31508    0.82160    0.07767    1.000
    Si2617   Si       0.29291    0.80289    0.01691    1.000
    N2618    N        0.24924    0.80254    0.00620    1.000
    N2619    N        0.35817    0.82476    0.07964    1.000
    N2620    N        0.30756    0.78268    0.05916    1.000
    N2621    N        0.42323    0.79565    0.05591    1.000
    Si2622   Si       0.38619    0.78980    0.07949    1.000
    Si2623   Si       0.42079    0.83118    0.03097    1.000
    N2624    N        0.45671    0.78561    0.99591    1.000
    N2625    N        0.24348    0.79801    0.12950    1.000
    N2626    N        0.35457    0.83075    0.16218    1.000
    N2627    N        0.30006    0.80924    0.22083    1.000
    Si2628   Si       0.33911    0.81834    0.20357    1.000
    N2629    N        0.36374    0.78310    0.21562    1.000
    N2630    N        0.38677    0.78112    0.12279    1.000
    N2631    N        0.47746    0.81766    0.23699    1.000
    Si2632   Si       0.39494    0.81881    0.14532    1.000
    Si2633   Si       0.40340    0.79780    0.21952    1.000
    N2634    N        0.48657    0.80090    0.17145    1.000
    N2635    N        0.41971    0.81535    0.18320    1.000
    Si2636   Si       0.46894    0.78493    0.20964    1.000
    N2637    N        0.32213    0.80386    0.34479    1.000
    Si2638   Si       0.31249    0.80879    0.30076    1.000
    N2639    N        0.35417    0.81915    0.29271    1.000
    Si2640   Si       0.36369    0.81457    0.33588    1.000
    N2641    N        0.29608    0.77608    0.27998    1.000
    N2642    N        0.39389    0.78589    0.34922    1.000
    Si2643   Si       0.47446    0.79037    0.31740    1.000
    N2644    N        0.45399    0.82729    0.30246    1.000
    N2645    N        0.40644    0.83243    0.24855    1.000
    N2646    N        0.35322    0.78763    0.46770    1.000
    N2647    N        0.28360    0.80313    0.40766    1.000
    Si2648   Si       0.24720    0.78756    0.42569    1.000
    Si2649   Si       0.30862    0.78182    0.37983    1.000
    Si2650   Si       0.32737    0.80751    0.49576    1.000
    Si2651   Si       0.41999    0.80033    0.38392    1.000
    Si2652   Si       0.38795    0.81280    0.45780    1.000
    N2653    N        0.42662    0.80016    0.46977    1.000
    N2654    N        0.39348    0.81789    0.41373    1.000
    N2655    N        0.44751    0.83178    0.37082    1.000
    N2656    N        0.29436    0.78281    0.50752    1.000
    N2657    N        0.34777    0.82402    0.53367    1.000
    N2658    N        0.34037    0.80167    0.61493    1.000
    Si2659   Si       0.44089    0.77719    0.57192    1.000
    N2660    N        0.40124    0.79707    0.57733    1.000
    N2661    N        0.47771    0.79377    0.58594    1.000
    Si2662   Si       0.44306    0.80960    0.50878    1.000
    Si2663   Si       0.37590    0.77810    0.61110    1.000
    N2664    N        0.48279    0.82603    0.50440    1.000
    Si2665   Si       0.38702    0.82874    0.55311    1.000
    Si2666   Si       0.28538    0.80447    0.67461    1.000
    N2667    N        0.29504    0.79415    0.71579    1.000
    Si2668   Si       0.33509    0.80343    0.73379    1.000
    N2669    N        0.24596    0.82201    0.68128    1.000
    N2670    N        0.44279    0.78720    0.70191    1.000
    Si2671   Si       0.40732    0.80323    0.68209    1.000
    N2672    N        0.37316    0.79990    0.71118    1.000
    N2673    N        0.40414    0.78102    0.64471    1.000
    Si2674   Si       0.48102    0.78215    0.68111    1.000
    Si2675   Si       0.29434    0.81064    0.83975    1.000
    N2676    N        0.33799    0.80483    0.83113    1.000
    N2677    N        0.27473    0.81831    0.80097    1.000
    N2678    N        0.35008    0.77557    0.76383    1.000
    Si2679   Si       0.24168    0.79758    0.78292    1.000
    Si2680   Si       0.36976    0.82943    0.84880    1.000
    N2681    N        0.48457    0.79922    0.75850    1.000
    N2682    N        0.45208    0.79746    0.81966    1.000
    Si2683   Si       0.41405    0.78945    0.80289    1.000
    Si2684   Si       0.47788    0.82109    0.79505    1.000
    Si2685   Si       0.46433    0.78150    0.85699    1.000
    N2686    N        0.39604    0.82851    0.81263    1.000
    N2687    N        0.42086    0.77371    0.76287    1.000
    N2688    N        0.28525    0.79737    0.93407    1.000
    N2689    N        0.35542    0.79072    0.94674    1.000
    Si2690   Si       0.35912    0.82236    0.97647    1.000
    Si2691   Si       0.26388    0.77957    0.90042    1.000
    N2692    N        0.31681    0.82527    0.98422    1.000
    N2693    N        0.38932    0.81333    0.88584    1.000
    N2694    N        0.39754    0.81663    0.99628    1.000
    Si2695   Si       0.42544    0.79995    0.96796    1.000
    Si2696   Si       0.38239    0.78135    0.91346    1.000
    N2697    N        0.46422    0.81359    0.88548    1.000
    Si2698   Si       0.30907    0.88217    0.03690    1.000
    N2699    N        0.35182    0.88644    0.04131    1.000
    N2700    N        0.35860    0.88356    0.11351    1.000
    N2701    N        0.29424    0.84296    0.04635    1.000
    N2702    N        0.30153    0.84215    0.11589    1.000
    Si2703   Si       0.37162    0.86662    0.07691    1.000
    N2704    N        0.41345    0.86287    0.06298    1.000
    N2705    N        0.45200    0.85791    0.01290    1.000
    Si2706   Si       0.44737    0.86152    0.09277    1.000
    N2707    N        0.47887    0.84011    0.07249    1.000
    Si2708   Si       0.33385    0.86122    0.14119    1.000
    N2709    N        0.34702    0.85506    0.22585    1.000
    Si2710   Si       0.32354    0.88757    0.20978    1.000
    Si2711   Si       0.25880    0.83880    0.12927    1.000
    N2712    N        0.28323    0.88133    0.22797    1.000
    N2713    N        0.31563    0.88998    0.16786    1.000
    Si2714   Si       0.45623    0.83279    0.16476    1.000
    N2715    N        0.46715    0.86711    0.18582    1.000
    N2716    N        0.43132    0.83767    0.12734    1.000
    Si2717   Si       0.26971    0.86700    0.31927    1.000
    N2718    N        0.28340    0.86189    0.36362    1.000
    N2719    N        0.28913    0.84509    0.28903    1.000
    Si2720   Si       0.27878    0.83829    0.24605    1.000
    N2721    N        0.36887    0.88432    0.28850    1.000
    Si2722   Si       0.36797    0.84818    0.26338    1.000
    N2723    N        0.37413    0.85010    0.35601    1.000
    Si2724   Si       0.45093    0.85491    0.33456    1.000
    N2725    N        0.45853    0.88443    0.26708    1.000
    Si2726   Si       0.44764    0.84086    0.26134    1.000
    Si2727   Si       0.37818    0.88415    0.33095    1.000
    N2728    N        0.42333    0.88733    0.33112    1.000
    N2729    N        0.33582    0.85995    0.41303    1.000
    Si2730   Si       0.34030    0.86541    0.45495    1.000
    Si2731   Si       0.29766    0.84611    0.40378    1.000
    N2732    N        0.26817    0.86714    0.42894    1.000
    Si2733   Si       0.26801    0.85169    0.46922    1.000
    N2734    N        0.30982    0.84056    0.47341    1.000
    Si2735   Si       0.24038    0.86038    0.37375    1.000
    Si2736   Si       0.40645    0.87379    0.49678    1.000
    N2737    N        0.40262    0.88792    0.40816    1.000
    N2738    N        0.47558    0.87022    0.42209    1.000
    N2739    N        0.37815    0.85336    0.47073    1.000
    Si2740   Si       0.48672    0.84391    0.38583    1.000
    Si2741   Si       0.37581    0.85481    0.39799    1.000
    N2742    N        0.30560    0.85390    0.59117    1.000
    Si2743   Si       0.33179    0.85842    0.55703    1.000
    Si2744   Si       0.27714    0.88210    0.60659    1.000
    Si2745   Si       0.32888    0.84108    0.62452    1.000
    N2746    N        0.25496    0.87830    0.50116    1.000
    N2747    N        0.37367    0.86313    0.57752    1.000
    N2748    N        0.41750    0.84092    0.52440    1.000
    N2749    N        0.35512    0.88698    0.69979    1.000
    N2750    N        0.24467    0.86905    0.63262    1.000
    N2751    N        0.30380    0.83977    0.65982    1.000
    Si2752   Si       0.32314    0.88010    0.66956    1.000
    Si2753   Si       0.25403    0.86619    0.67785    1.000
    N2754    N        0.35859    0.86992    0.64137    1.000
    Si2755   Si       0.36232    0.87658    0.74227    1.000
    Si2756   Si       0.39060    0.88386    0.67139    1.000
    Si2757   Si       0.43025    0.86714    0.71710    1.000
    N2758    N        0.47162    0.87216    0.72417    1.000
    N2759    N        0.41317    0.84762    0.68122    1.000
    Si2760   Si       0.29600    0.84898    0.77764    1.000
    Si2761   Si       0.31363    0.87881    0.85018    1.000
    N2762    N        0.35566    0.86933    0.85553    1.000
    N2763    N        0.28826    0.84739    0.86352    1.000
    N2764    N        0.30694    0.87930    0.80616    1.000
    N2765    N        0.26210    0.86637    0.75599    1.000
    N2766    N        0.33035    0.84488    0.75000    1.000
    N2767    N        0.45666    0.85961    0.78830    1.000
    Si2768   Si       0.41396    0.86298    0.79334    1.000
    N2769    N        0.40236    0.86297    0.75067    1.000
    Si2770   Si       0.24744    0.85286    0.87265    1.000
    N2771    N        0.24883    0.85467    0.96318    1.000
    N2772    N        0.30420    0.87206    0.93391    1.000
    Si2773   Si       0.32897    0.88647    0.96712    1.000
    Si2774   Si       0.28604    0.83696    0.95134    1.000
    N2775    N        0.24287    0.88874    0.89717    1.000
    Si2776   Si       0.42675    0.83342    0.89800    1.000
    N2777    N        0.43422    0.83404    0.94218    1.000
    N2778    N        0.36551    0.86404    0.96218    1.000
    Si2779   Si       0.45802    0.86641    0.95833    1.000
    N2780    N        0.47759    0.87422    0.91520    1.000
    N2781    N        0.42449    0.86887    0.87226    1.000
    N2782    N        0.29144    0.90958    0.06594    1.000
    Si2783   Si       0.25860    0.89921    0.09284    1.000
    Si2784   Si       0.36622    0.92111    0.01850    1.000
    Si2785   Si       0.29986    0.95086    0.05182    1.000
    N2786    N        0.29794    0.89036    0.99637    1.000
    N2787    N        0.47246    0.92361    0.02091    1.000
    N2788    N        0.40812    0.93009    0.02484    1.000
    Si2789   Si       0.46089    0.94064    0.10984    1.000
    Si2790   Si       0.43708    0.90224    0.01242    1.000
    N2791    N        0.46936    0.89858    0.10528    1.000
    N2792    N        0.34228    0.92286    0.22873    1.000
    Si2793   Si       0.29632    0.92776    0.15645    1.000
    Si2794   Si       0.25075    0.91135    0.23284    1.000
    N2795    N        0.26212    0.91393    0.13444    1.000
    N2796    N        0.32851    0.94661    0.13099    1.000
    Si2797   Si       0.36642    0.92338    0.13286    1.000
    N2798    N        0.37970    0.90786    0.17301    1.000
    Si2799   Si       0.38325    0.93062    0.20791    1.000
    N2800    N        0.40320    0.92578    0.24733    1.000
    N2801    N        0.34199    0.90906    0.34711    1.000
    N2802    N        0.27907    0.90944    0.32266    1.000
    N2803    N        0.27498    0.94041    0.25562    1.000
    Si2804   Si       0.30085    0.90504    0.36331    1.000
    Si2805   Si       0.26989    0.94536    0.29978    1.000
    Si2806   Si       0.35752    0.94915    0.34205    1.000
    N2807    N        0.35609    0.95351    0.29707    1.000
    Si2808   Si       0.36572    0.92085    0.26883    1.000
    Si2809   Si       0.43580    0.92866    0.33890    1.000
    Si2810   Si       0.44256    0.92592    0.26477    1.000
    N2811    N        0.46831    0.93147    0.36419    1.000
    N2812    N        0.39705    0.93796    0.35744    1.000
    N2813    N        0.44073    0.95197    0.30279    1.000
    N2814    N        0.33115    0.90579    0.46742    1.000
    Si2815   Si       0.25044    0.90557    0.42185    1.000
    N2816    N        0.28802    0.92196    0.40272    1.000
    Si2817   Si       0.31835    0.93524    0.43621    1.000
    N2818    N        0.35584    0.94582    0.41720    1.000
    Si2819   Si       0.39591    0.93208    0.39976    1.000
    Si2820   Si       0.47132    0.91583    0.49427    1.000
    N2821    N        0.43143    0.94019    0.42523    1.000
    Si2822   Si       0.44247    0.89705    0.43076    1.000
    N2823    N        0.43864    0.89401    0.47349    1.000
    N2824    N        0.48347    0.94877    0.46909    1.000
    Si2825   Si       0.27717    0.90526    0.52966    1.000
    N2826    N        0.26012    0.90205    0.57135    1.000
    Si2827   Si       0.34549    0.91580    0.50864    1.000
    N2828    N        0.35911    0.92759    0.59792    1.000
    N2829    N        0.26974    0.94648    0.51649    1.000
    N2830    N        0.31954    0.89188    0.53399    1.000
    N2831    N        0.47749    0.90306    0.60817    1.000
    N2832    N        0.38768    0.90815    0.51410    1.000
    N2833    N        0.45453    0.91898    0.53532    1.000
    Si2834   Si       0.41663    0.94051    0.52266    1.000
    Si2835   Si       0.48297    0.90811    0.56500    1.000
    Si2836   Si       0.37922    0.89142    0.60889    1.000
    Si2837   Si       0.26603    0.90212    0.73148    1.000
    N2838    N        0.30297    0.90246    0.63557    1.000
    Si2839   Si       0.28903    0.93790    0.65702    1.000
    N2840    N        0.24723    0.93717    0.65894    1.000
    N2841    N        0.28747    0.88977    0.69537    1.000
    Si2842   Si       0.44025    0.94063    0.70909    1.000
    Si2843   Si       0.44880    0.92577    0.63208    1.000
    N2844    N        0.41524    0.90685    0.70264    1.000
    N2845    N        0.46425    0.93826    0.67191    1.000
    N2846    N        0.41408    0.90169    0.63587    1.000
    Si2847   Si       0.31993    0.91535    0.78725    1.000
    N2848    N        0.33382    0.94504    0.81778    1.000
    N2849    N        0.29613    0.92789    0.75445    1.000
    Si2850   Si       0.33759    0.94596    0.86181    1.000
    N2851    N        0.36058    0.90721    0.77331    1.000
    Si2852   Si       0.37778    0.93305    0.80930    1.000
    Si2853   Si       0.47774    0.93933    0.84423    1.000
    N2854    N        0.40662    0.89888    0.81697    1.000
    N2855    N        0.38201    0.93948    0.85698    1.000
    N2856    N        0.45983    0.93113    0.74963    1.000
    N2857    N        0.48639    0.89708    0.84415    1.000
    Si2858   Si       0.47582    0.89305    0.76322    1.000
    Si2859   Si       0.39083    0.89368    0.85974    1.000
    N2860    N        0.30727    0.91370    0.87601    1.000
    N2861    N        0.35531    0.92323    0.97566    1.000
    Si2862   Si       0.28279    0.90241    0.90988    1.000
    N2863    N        0.26581    0.92578    0.94324    1.000
    Si2864   Si       0.25929    0.89600    0.97597    1.000
    N2865    N        0.44683    0.93706    0.87408    1.000
    Si2866   Si       0.38844    0.90194    0.95336    1.000
    Si2867   Si       0.40967    0.94770    0.89149    1.000
    N2868    N        0.39406    0.91278    0.91301    1.000
    Si2869   Si       0.45962    0.89336    0.87852    1.000
    N2870    N        0.42815    0.89749    0.96853    1.000
    N2871    N        0.30988    0.98797    0.07092    1.000
    Si2872   Si       0.35267    0.99289    0.04203    1.000
    N2873    N        0.26623    0.96366    0.02662    1.000
    Si2874   Si       0.31628    0.98611    0.11352    1.000
    N2875    N        0.33610    0.95197    0.02798    1.000
    N2876    N        0.38984    0.99127    0.06345    1.000
    Si2877   Si       0.47701    0.96203    0.03839    1.000
    N2878    N        0.44837    0.98902    0.01568    1.000
    Si2879   Si       0.38940    0.99935    0.10744    1.000
    Si2880   Si       0.41848    0.96907    0.04247    1.000
    N2881    N        0.45022    0.95781    0.07146    1.000
    N2882    N        0.32581    0.99057    0.24299    1.000
    N2883    N        0.28323    0.00348    0.13538    1.000
    Si2884   Si       0.28966    0.00013    0.17980    1.000
    N2885    N        0.29615    0.95793    0.18812    1.000
    Si2886   Si       0.30790    0.95277    0.22946    1.000
    N2887    N        0.39095    0.95866    0.12412    1.000
    N2888    N        0.46329    0.95445    0.23800    1.000
    Si2889   Si       0.42927    0.98021    0.22816    1.000
    N2890    N        0.40412    0.96711    0.19630    1.000
    Si2891   Si       0.41577    0.97611    0.15604    1.000
    N2892    N        0.45173    0.95638    0.15001    1.000
    N2893    N        0.33768    0.98203    0.36124    1.000
    Si2894   Si       0.29795    0.99646    0.35105    1.000
    N2895    N        0.29329    0.97887    0.30942    1.000
    Si2896   Si       0.33038    0.98845    0.28785    1.000
    Si2897   Si       0.43162    0.99435    0.30061    1.000
    N2898    N        0.41136    0.99981    0.26281    1.000
    N2899    N        0.27568    0.99398    0.38886    1.000
    N2900    N        0.29949    0.96850    0.45706    1.000
    Si2901   Si       0.35804    0.98652    0.40044    1.000
    Si2902   Si       0.29183    0.00122    0.42859    1.000
    Si2903   Si       0.44627    0.96801    0.45410    1.000
    N2904    N        0.39887    0.99422    0.39495    1.000
    N2905    N        0.42265    0.96872    0.49048    1.000
    N2906    N        0.45577    0.00724    0.43780    1.000
    Si2907   Si       0.34684    0.96725    0.60625    1.000
    N2908    N        0.33427    0.99099    0.56949    1.000
    N2909    N        0.33817    0.95947    0.51344    1.000
    Si2910   Si       0.30023    0.97528    0.50143    1.000
    Si2911   Si       0.36402    0.98005    0.54083    1.000
    N2912    N        0.40347    0.96575    0.55582    1.000
    Si2913   Si       0.41681    0.98491    0.59148    1.000
    Si2914   Si       0.47779    0.99766    0.61092    1.000
    N2915    N        0.44887    0.96337    0.61098    1.000
    N2916    N        0.38216    0.99111    0.61756    1.000
    Si2917   Si       0.30647    0.96513    0.73313    1.000
    N2918    N        0.31437    0.96743    0.63210    1.000
    N2919    N        0.29776    0.96187    0.69220    1.000
    Si2920   Si       0.31472    0.99427    0.66776    1.000
    Si2921   Si       0.24554    0.00734    0.74274    1.000
    N2922    N        0.34894    0.96821    0.73985    1.000
    Si2923   Si       0.24050    0.00943    0.66314    1.000
    N2924    N        0.41588    0.97664    0.71508    1.000
    N2925    N        0.48218    0.98445    0.71958    1.000
    Si2926   Si       0.37647    0.99526    0.71604    1.000
    N2927    N        0.28637    0.00043    0.74989    1.000
    Si2928   Si       0.36267    0.99165    0.77677    1.000
    Si2929   Si       0.47811    0.97000    0.76425    1.000
    N2930    N        0.39461    0.97218    0.79852    1.000
    Si2931   Si       0.43258    0.98843    0.80600    1.000
    N2932    N        0.46544    0.96103    0.80977    1.000
    N2933    N        0.45211    0.00672    0.76909    1.000
    N2934    N        0.23848    0.95965    0.89444    1.000
    Si2935   Si       0.31703    0.99705    0.92706    1.000
    Si2936   Si       0.27464    0.98900    0.99256    1.000
    Si2937   Si       0.26041    0.96809    0.93116    1.000
    N2938    N        0.30569    0.97664    0.96393    1.000
    Si2939   Si       0.33850    0.96316    0.98650    1.000
    N2940    N        0.33461    0.97713    0.89016    1.000
    N2941    N        0.27682    0.00563    0.91350    1.000
    N2942    N        0.36599    0.99501    0.99869    1.000
    N2943    N        0.46993    0.00521    0.94769    1.000
    N2944    N        0.40749    0.98735    0.90670    1.000
    Si2945   Si       0.36907    0.00504    0.89578    1.000
    N2946    N        0.52251    0.02275    0.09494    1.000
    Si2947   Si       0.54285    0.04769    0.06549    1.000
    N2948    N        0.55831    0.02145    0.03430    1.000
    N2949    N        0.57784    0.06096    0.08627    1.000
    Si2950   Si       0.62167    0.05415    0.09448    1.000
    N2951    N        0.68842    0.03135    0.04936    1.000
    Si2952   Si       0.71370    0.04334    0.01730    1.000
    Si2953   Si       0.65179    0.02391    0.02587    1.000
    N2954    N        0.62433    0.02138    0.06079    1.000
    N2955    N        0.66048    0.04189    0.11339    1.000
    N2956    N        0.71896    0.01870    0.11362    1.000
    N2957    N        0.64007    0.05472    0.99785    1.000
    Si2958   Si       0.68180    0.01196    0.08816    1.000
    Si2959   Si       0.50115    0.04663    0.12532    1.000
    Si2960   Si       0.58432    0.04002    0.18097    1.000
    N2961    N        0.55689    0.02660    0.21633    1.000
    N2962    N        0.49627    0.03410    0.16434    1.000
    N2963    N        0.61043    0.06440    0.14446    1.000
    N2964    N        0.49894    0.04762    0.22873    1.000
    Si2965   Si       0.52842    0.01189    0.18604    1.000
    Si2966   Si       0.70435    0.02207    0.20402    1.000
    N2967    N        0.68389    0.04720    0.17364    1.000
    N2968    N        0.67439    0.01442    0.23538    1.000
    Si2969   Si       0.64106    0.03278    0.15432    1.000
    Si2970   Si       0.69881    0.05180    0.13100    1.000
    N2971    N        0.62032    0.02408    0.19367    1.000
    N2972    N        0.52826    0.03378    0.34226    1.000
    N2973    N        0.56559    0.02298    0.28782    1.000
    Si2974   Si       0.59816    0.05425    0.36075    1.000
    Si2975   Si       0.59266    0.05922    0.28494    1.000
    N2976    N        0.58801    0.00935    0.35565    1.000
    Si2977   Si       0.49525    0.00817    0.33435    1.000
    N2978    N        0.63211    0.04417    0.27822    1.000
    Si2979   Si       0.67322    0.03332    0.27470    1.000
    Si2980   Si       0.72437    0.02140    0.33268    1.000
    N2981    N        0.64151    0.04320    0.36041    1.000
    N2982    N        0.69176    0.01105    0.30614    1.000
    N2983    N        0.49963    0.05062    0.48121    1.000
    N2984    N        0.55976    0.02419    0.46851    1.000
    N2985    N        0.51578    0.03989    0.41073    1.000
    Si2986   Si       0.53053    0.04895    0.44991    1.000
    Si2987   Si       0.53340    0.06002    0.37724    1.000
    Si2988   Si       0.58198    0.05824    0.48845    1.000
    Si2989   Si       0.67168    0.04910    0.38774    1.000
    N2990    N        0.62283    0.04944    0.48865    1.000
    N2991    N        0.70832    0.02683    0.37472    1.000
    N2992    N        0.65565    0.03755    0.42686    1.000
    Si2993   Si       0.64944    0.06817    0.45961    1.000
    Si2994   Si       0.72620    0.01202    0.41221    1.000
    Si2995   Si       0.54376    0.03998    0.60339    1.000
    N2996    N        0.58120    0.03479    0.58358    1.000
    Si2997   Si       0.51990    0.04248    0.52080    1.000
    N2998    N        0.55788    0.06206    0.52395    1.000
    N2999    N        0.49199    0.05817    0.54684    1.000
    Si3000   Si       0.62532    0.05413    0.59421    1.000
    N3001    N        0.63711    0.01060    0.57872    1.000
    N3002    N        0.70211    0.02880    0.55700    1.000
    Si3003   Si       0.70988    0.05197    0.59379    1.000
    Si3004   Si       0.73908    0.01872    0.53614    1.000
    Si3005   Si       0.58860    0.04172    0.66554    1.000
    Si3006   Si       0.50710    0.03508    0.66269    1.000
    N3007    N        0.54894    0.03854    0.64761    1.000
    N3008    N        0.58227    0.05668    0.70799    1.000
    Si3009   Si       0.58082    0.02687    0.74213    1.000
    N3010    N        0.51035    0.06723    0.69443    1.000
    Si3011   Si       0.66172    0.03028    0.74352    1.000
    N3012    N        0.72734    0.01477    0.69605    1.000
    N3013    N        0.61991    0.05845    0.63816    1.000
    Si3014   Si       0.73768    0.02310    0.73851    1.000
    Si3015   Si       0.73329    0.04446    0.66519    1.000
    N3016    N        0.69404    0.06321    0.66697    1.000
    N3017    N        0.73404    0.03010    0.62371    1.000
    Si3018   Si       0.53480    0.04481    0.79864    1.000
    Si3019   Si       0.57528    0.03146    0.84498    1.000
    N3020    N        0.54534    0.04744    0.75636    1.000
    N3021    N        0.57098    0.06327    0.81546    1.000
    N3022    N        0.49547    0.06305    0.79689    1.000
    N3023    N        0.61391    0.02000    0.82968    1.000
    Si3024   Si       0.61634    0.05175    0.79816    1.000
    N3025    N        0.54286    0.00956    0.82442    1.000
    N3026    N        0.62083    0.03242    0.75967    1.000
    N3027    N        0.70052    0.02541    0.76263    1.000
    Si3028   Si       0.70881    0.02077    0.80466    1.000
    N3029    N        0.71089    0.05902    0.82584    1.000
    N3030    N        0.66499    0.03547    0.87163    1.000
    N3031    N        0.57041    0.03398    0.88671    1.000
    N3032    N        0.57794    0.02932    0.95994    1.000
    Si3033   Si       0.54875    0.03279    0.99205    1.000
    Si3034   Si       0.61252    0.05241    0.96285    1.000
    N3035    N        0.64681    0.04366    0.93766    1.000
    N3036    N        0.69638    0.02224    0.98244    1.000
    N3037    N        0.70824    0.06233    0.92574    1.000
    Si3038   Si       0.67873    0.03260    0.91194    1.000
    Si3039   Si       0.67766    0.06229    0.96706    1.000
    Si3040   Si       0.58826    0.10425    0.07764    1.000
    N3041    N        0.57849    0.11073    0.03445    1.000
    Si3042   Si       0.49955    0.08304    0.01246    1.000
    N3043    N        0.57473    0.12001    0.11589    1.000
    N3044    N        0.51027    0.07682    0.05451    1.000
    N3045    N        0.51382    0.08784    0.12159    1.000
    N3046    N        0.49033    0.12555    0.00869    1.000
    N3047    N        0.70144    0.08187    0.00256    1.000
    N3048    N        0.63048    0.09322    0.07743    1.000
    Si3049   Si       0.69927    0.12369    0.01362    1.000
    N3050    N        0.71355    0.09010    0.11700    1.000
    N3051    N        0.72188    0.12904    0.05051    1.000
    Si3052   Si       0.58797    0.10316    0.15470    1.000
    N3053    N        0.51971    0.10818    0.22593    1.000
    N3054    N        0.56570    0.07874    0.18541    1.000
    Si3055   Si       0.54207    0.06757    0.22237    1.000
    Si3056   Si       0.53126    0.12689    0.12865    1.000
    N3057    N        0.65251    0.09659    0.22032    1.000
    N3058    N        0.72045    0.10042    0.20335    1.000
    N3059    N        0.67088    0.11991    0.16212    1.000
    Si3060   Si       0.68088    0.09010    0.18980    1.000
    Si3061   Si       0.52859    0.10230    0.26835    1.000
    N3062    N        0.59635    0.07897    0.32557    1.000
    N3063    N        0.49636    0.08375    0.28981    1.000
    N3064    N        0.56419    0.07991    0.25946    1.000
    N3065    N        0.51021    0.09422    0.36845    1.000
    N3066    N        0.62393    0.11482    0.27769    1.000
    Si3067   Si       0.66341    0.10412    0.26117    1.000
    Si3068   Si       0.62403    0.11507    0.32370    1.000
    Si3069   Si       0.73363    0.08082    0.28310    1.000
    N3070    N        0.69467    0.07215    0.26840    1.000
    N3071    N        0.73364    0.11112    0.31347    1.000
    N3072    N        0.66861    0.11799    0.32347    1.000
    Si3073   Si       0.67533    0.11867    0.36468    1.000
    N3074    N        0.63167    0.12024    0.37039    1.000
    N3075    N        0.55897    0.08429    0.45831    1.000
    Si3076   Si       0.58512    0.09804    0.42303    1.000
    Si3077   Si       0.52970    0.11365    0.47182    1.000
    N3078    N        0.50047    0.11533    0.44028    1.000
    Si3079   Si       0.49412    0.12272    0.39833    1.000
    N3080    N        0.57431    0.06957    0.39135    1.000
    N3081    N        0.62416    0.10049    0.44172    1.000
    Si3082   Si       0.72913    0.07738    0.48142    1.000
    N3083    N        0.68949    0.08824    0.39194    1.000
    N3084    N        0.68502    0.07921    0.48053    1.000
    Si3085   Si       0.72897    0.08760    0.41250    1.000
    N3086    N        0.54189    0.08309    0.59229    1.000
    N3087    N        0.51024    0.11098    0.51151    1.000
    Si3088   Si       0.57024    0.08550    0.55903    1.000
    Si3089   Si       0.52954    0.12311    0.60638    1.000
    N3090    N        0.61266    0.08942    0.56927    1.000
    Si3091   Si       0.68400    0.11358    0.50660    1.000
    Si3092   Si       0.68670    0.11002    0.58621    1.000
    N3093    N        0.72672    0.09185    0.58355    1.000
    N3094    N        0.72765    0.11145    0.51236    1.000
    N3095    N        0.67247    0.11866    0.54814    1.000
    Si3096   Si       0.62878    0.12161    0.54559    1.000
    N3097    N        0.67014    0.07208    0.60461    1.000
    N3098    N        0.63323    0.11985    0.50276    1.000
    N3099    N        0.54140    0.11660    0.73211    1.000
    N3100    N        0.60799    0.11707    0.70199    1.000
    Si3101   Si       0.54153    0.07311    0.72160    1.000
    Si3102   Si       0.61345    0.08191    0.72993    1.000
    N3103    N        0.51056    0.12287    0.64873    1.000
    N3104    N        0.71375    0.11795    0.71908    1.000
    Si3105   Si       0.65954    0.07687    0.64590    1.000
    N3106    N        0.65503    0.07121    0.72397    1.000
    Si3107   Si       0.68719    0.09076    0.70017    1.000
    N3108    N        0.66707    0.11652    0.66781    1.000
    N3109    N        0.60498    0.09418    0.77086    1.000
    Si3110   Si       0.57355    0.10366    0.79962    1.000
    Si3111   Si       0.49690    0.10553    0.80491    1.000
    N3112    N        0.53761    0.12295    0.80560    1.000
    N3113    N        0.60108    0.12457    0.82848    1.000
    Si3114   Si       0.63249    0.11365    0.79992    1.000
    N3115    N        0.73097    0.10977    0.78744    1.000
    N3116    N        0.64709    0.07790    0.81623    1.000
    Si3117   Si       0.67570    0.06890    0.84779    1.000
    N3118    N        0.59561    0.09350    0.96067    1.000
    Si3119   Si       0.56682    0.10510    0.99273    1.000
    N3120    N        0.53723    0.07333    0.99264    1.000
    N3121    N        0.66612    0.10246    0.94571    1.000
    Si3122   Si       0.62520    0.11629    0.93892    1.000
    Si3123   Si       0.69788    0.10255    0.91705    1.000
    N3124    N        0.67918    0.10265    0.87787    1.000
    Si3125   Si       0.57640    0.15687    0.03382    1.000
    N3126    N        0.50471    0.15793    0.11401    1.000
    N3127    N        0.60765    0.15270    0.06974    1.000
    N3128    N        0.55168    0.17930    0.06371    1.000
    Si3129   Si       0.58570    0.18250    0.09204    1.000
    Si3130   Si       0.51117    0.18492    0.08116    1.000
    N3131    N        0.67503    0.14975    0.09401    1.000
    Si3132   Si       0.70990    0.16935    0.06910    1.000
    N3133    N        0.65802    0.13877    0.02413    1.000
    Si3134   Si       0.63723    0.16779    0.99956    1.000
    Si3135   Si       0.64552    0.13118    0.06533    1.000
    Si3136   Si       0.51149    0.14048    0.19950    1.000
    N3137    N        0.51676    0.17744    0.22547    1.000
    N3138    N        0.60684    0.14056    0.16921    1.000
    Si3139   Si       0.57573    0.16938    0.16612    1.000
    N3140    N        0.54152    0.14211    0.16734    1.000
    Si3141   Si       0.69500    0.12854    0.12738    1.000
    Si3142   Si       0.73357    0.14109    0.19226    1.000
    Si3143   Si       0.64632    0.15424    0.17788    1.000
    Si3144   Si       0.68207    0.17431    0.23803    1.000
    N3145    N        0.66208    0.18637    0.15113    1.000
    N3146    N        0.64350    0.17444    0.21652    1.000
    N3147    N        0.70772    0.17525    0.20250    1.000
    N3148    N        0.73563    0.14102    0.14954    1.000
    N3149    N        0.54448    0.13887    0.28281    1.000
    N3150    N        0.60536    0.15662    0.31744    1.000
    Si3151   Si       0.50831    0.17442    0.34868    1.000
    Si3152   Si       0.58874    0.13989    0.28086    1.000
    Si3153   Si       0.54201    0.17769    0.26180    1.000
    N3154    N        0.58429    0.17225    0.25174    1.000
    N3155    N        0.55176    0.18024    0.35376    1.000
    N3156    N        0.68882    0.14057    0.26394    1.000
    Si3157   Si       0.70316    0.14090    0.30642    1.000
    N3158    N        0.71340    0.18161    0.31489    1.000
    N3159    N        0.55027    0.14830    0.48302    1.000
    Si3160   Si       0.55186    0.17112    0.39681    1.000
    N3161    N        0.58083    0.14016    0.41164    1.000
    N3162    N        0.50685    0.16224    0.39027    1.000
    N3163    N        0.61304    0.17638    0.46917    1.000
    Si3164   Si       0.57140    0.18281    0.46680    1.000
    Si3165   Si       0.70711    0.18642    0.47877    1.000
    Si3166   Si       0.68761    0.18265    0.40833    1.000
    Si3167   Si       0.64077    0.14138    0.46409    1.000
    N3168    N        0.65367    0.15900    0.42416    1.000
    N3169    N        0.69854    0.15366    0.37481    1.000
    Si3170   Si       0.61936    0.15198    0.39654    1.000
    N3171    N        0.68207    0.15048    0.48168    1.000
    Si3172   Si       0.58041    0.15965    0.57726    1.000
    Si3173   Si       0.53071    0.14756    0.52475    1.000
    N3174    N        0.56088    0.15079    0.61525    1.000
    N3175    N        0.49860    0.17662    0.52209    1.000
    N3176    N        0.49847    0.13080    0.57442    1.000
    N3177    N        0.56124    0.12929    0.55052    1.000
    N3178    N        0.62157    0.15720    0.56935    1.000
    N3179    N        0.69191    0.14411    0.61285    1.000
    Si3180   Si       0.70202    0.18568    0.60450    1.000
    Si3181   Si       0.57554    0.17603    0.64735    1.000
    Si3182   Si       0.57444    0.14141    0.71855    1.000
    N3183    N        0.55719    0.16234    0.68472    1.000
    Si3184   Si       0.51341    0.15613    0.67653    1.000
    Si3185   Si       0.50471    0.13909    0.74469    1.000
    N3186    N        0.59198    0.16719    0.74967    1.000
    N3187    N        0.65674    0.16483    0.71576    1.000
    Si3188   Si       0.70385    0.14018    0.65458    1.000
    N3189    N        0.70826    0.17676    0.67862    1.000
    Si3190   Si       0.69925    0.15905    0.71915    1.000
    N3191    N        0.61906    0.17347    0.65483    1.000
    Si3192   Si       0.63635    0.14436    0.68228    1.000
    Si3193   Si       0.54150    0.16009    0.82913    1.000
    Si3194   Si       0.59802    0.14721    0.86415    1.000
    N3195    N        0.51905    0.17763    0.76142    1.000
    N3196    N        0.50258    0.17576    0.82533    1.000
    N3197    N        0.55486    0.15433    0.86971    1.000
    N3198    N        0.71291    0.17069    0.75726    1.000
    N3199    N        0.65582    0.14168    0.77883    1.000
    N3200    N        0.70350    0.16404    0.82609    1.000
    Si3201   Si       0.69976    0.14282    0.78875    1.000
    Si3202   Si       0.70444    0.13699    0.86581    1.000
    Si3203   Si       0.63567    0.17163    0.75473    1.000
    Si3204   Si       0.60897    0.17678    0.92624    1.000
    Si3205   Si       0.50877    0.15261    0.97983    1.000
    Si3206   Si       0.53404    0.16398    0.90861    1.000
    N3207    N        0.51341    0.13862    0.93829    1.000
    N3208    N        0.55219    0.14799    0.99193    1.000
    N3209    N        0.61410    0.13835    0.90358    1.000
    N3210    N        0.56727    0.18098    0.93301    1.000
    N3211    N        0.49152    0.17897    0.89681    1.000
    N3212    N        0.68738    0.17119    0.88790    1.000
    N3213    N        0.71659    0.14208    0.97880    1.000
    N3214    N        0.62626    0.15420    0.95996    1.000
    N3215    N        0.73107    0.12853    0.91392    1.000
    N3216    N        0.51817    0.22639    0.09811    1.000
    N3217    N        0.59822    0.18685    0.01135    1.000
    N3218    N        0.62136    0.20947    0.09666    1.000
    Si3219   Si       0.69065    0.22222    0.00979    1.000
    N3220    N        0.69409    0.20772    0.09068    1.000
    N3221    N        0.70918    0.19033    0.03245    1.000
    Si3222   Si       0.65848    0.18948    0.10734    1.000
    Si3223   Si       0.71194    0.24447    0.07433    1.000
    Si3224   Si       0.61535    0.22885    0.99904    1.000
    N3225    N        0.65496    0.20658    0.99361    1.000
    N3226    N        0.56769    0.19443    0.13144    1.000
    Si3227   Si       0.60859    0.19819    0.22724    1.000
    Si3228   Si       0.53652    0.22501    0.13664    1.000
    N3229    N        0.50713    0.20838    0.16358    1.000
    N3230    N        0.58790    0.20289    0.19038    1.000
    Si3231   Si       0.50096    0.21373    0.20664    1.000
    Si3232   Si       0.58324    0.24510    0.17739    1.000
    Si3233   Si       0.69460    0.20670    0.17300    1.000
    N3234    N        0.73266    0.21287    0.15318    1.000
    N3235    N        0.67564    0.23905    0.19209    1.000
    N3236    N        0.53196    0.21084    0.28465    1.000
    N3237    N        0.59690    0.22926    0.32253    1.000
    Si3238   Si       0.59139    0.19035    0.34073    1.000
    Si3239   Si       0.49144    0.22017    0.29525    1.000
    Si3240   Si       0.69923    0.21985    0.29783    1.000
    N3241    N        0.68697    0.21336    0.25639    1.000
    N3242    N        0.66431    0.24037    0.31601    1.000
    N3243    N        0.62515    0.23025    0.25068    1.000
    N3244    N        0.73538    0.24524    0.29403    1.000
    Si3245   Si       0.72155    0.18655    0.35691    1.000
    Si3246   Si       0.61393    0.22954    0.40022    1.000
    N3247    N        0.49594    0.22031    0.46747    1.000
    N3248    N        0.55856    0.19903    0.42969    1.000
    N3249    N        0.50888    0.23465    0.39878    1.000
    Si3250   Si       0.54582    0.24013    0.41904    1.000
    N3251    N        0.56081    0.21440    0.49720    1.000
    N3252    N        0.61324    0.19139    0.37943    1.000
    Si3253   Si       0.52857    0.24112    0.48517    1.000
    Si3254   Si       0.63423    0.21491    0.48233    1.000
    N3255    N        0.71950    0.18879    0.43650    1.000
    N3256    N        0.62441    0.23703    0.44357    1.000
    N3257    N        0.69288    0.21445    0.37661    1.000
    N3258    N        0.67858    0.21857    0.48469    1.000
    Si3259   Si       0.58538    0.22086    0.53191    1.000
    Si3260   Si       0.54038    0.21858    0.59529    1.000
    N3261    N        0.56600    0.19772    0.56306    1.000
    N3262    N        0.50377    0.19688    0.58941    1.000
    N3263    N        0.62571    0.21044    0.52593    1.000
    N3264    N        0.63013    0.23188    0.58993    1.000
    Si3265   Si       0.64089    0.19678    0.56384    1.000
    N3266    N        0.68327    0.19419    0.56747    1.000
    N3267    N        0.56607    0.21501    0.63107    1.000
    N3268    N        0.50230    0.19645    0.66371    1.000
    Si3269   Si       0.49730    0.23683    0.67493    1.000
    N3270    N        0.50985    0.24344    0.71585    1.000
    N3271    N        0.70971    0.23598    0.73843    1.000
    N3272    N        0.68438    0.21436    0.63101    1.000
    N3273    N        0.65739    0.23881    0.69609    1.000
    Si3274   Si       0.68870    0.21631    0.67398    1.000
    Si3275   Si       0.59137    0.21521    0.83561    1.000
    Si3276   Si       0.55985    0.19113    0.76854    1.000
    N3277    N        0.56893    0.23561    0.86630    1.000
    Si3278   Si       0.60817    0.23842    0.76609    1.000
    N3279    N        0.56791    0.23123    0.75191    1.000
    N3280    N        0.49476    0.23880    0.78855    1.000
    N3281    N        0.56719    0.19050    0.81119    1.000
    N3282    N        0.67369    0.22525    0.85735    1.000
    N3283    N        0.71900    0.22627    0.80421    1.000
    Si3284   Si       0.70813    0.20437    0.84032    1.000
    Si3285   Si       0.72912    0.20837    0.76506    1.000
    N3286    N        0.64279    0.21444    0.76156    1.000
    N3287    N        0.61645    0.18676    0.85556    1.000
    N3288    N        0.74137    0.20182    0.86918    1.000
    N3289    N        0.51767    0.19824    0.98328    1.000
    N3290    N        0.57952    0.23316    0.97221    1.000
    Si3291   Si       0.56166    0.19144    0.97872    1.000
    N3292    N        0.70037    0.22256    0.93100    1.000
    N3293    N        0.63412    0.20973    0.91567    1.000
    Si3294   Si       0.72303    0.19159    0.90865    1.000
    Si3295   Si       0.65282    0.19540    0.87935    1.000
    Si3296   Si       0.65923    0.23836    0.93494    1.000
    N3297    N        0.72347    0.24193    0.99243    1.000
    N3298    N        0.57995    0.26113    0.09577    1.000
    Si3299   Si       0.57534    0.27206    0.05354    1.000
    N3300    N        0.53385    0.26727    0.03890    1.000
    Si3301   Si       0.51040    0.26174    0.07530    1.000
    Si3302   Si       0.51996    0.29228    0.00642    1.000
    N3303    N        0.51971    0.29870    0.09908    1.000
    N3304    N        0.60990    0.25409    0.03635    1.000
    Si3305   Si       0.55585    0.29015    0.12383    1.000
    Si3306   Si       0.61776    0.24883    0.11195    1.000
    N3307    N        0.64780    0.27335    0.09517    1.000
    Si3308   Si       0.64617    0.27051    0.05202    1.000
    N3309    N        0.71394    0.26881    0.11091    1.000
    Si3310   Si       0.68026    0.29554    0.11258    1.000
    N3311    N        0.68450    0.25367    0.04193    1.000
    N3312    N        0.54929    0.26243    0.15720    1.000
    N3313    N        0.57654    0.26909    0.21387    1.000
    Si3314   Si       0.53126    0.28478    0.19303    1.000
    N3315    N        0.50910    0.25627    0.21972    1.000
    Si3316   Si       0.60369    0.28673    0.24036    1.000
    N3317    N        0.49254    0.29636    0.16553    1.000
    N3318    N        0.64100    0.29159    0.21579    1.000
    N3319    N        0.67120    0.30572    0.15455    1.000
    Si3320   Si       0.65208    0.27351    0.17655    1.000
    N3321    N        0.61874    0.25412    0.15570    1.000
    Si3322   Si       0.66520    0.24454    0.23471    1.000
    N3323    N        0.53149    0.26863    0.33454    1.000
    Si3324   Si       0.57463    0.25907    0.34563    1.000
    N3325    N        0.59154    0.30063    0.35369    1.000
    Si3326   Si       0.50109    0.24831    0.35677    1.000
    N3327    N        0.61379    0.28356    0.28180    1.000
    Si3328   Si       0.72950    0.25963    0.25234    1.000
    Si3329   Si       0.67498    0.25017    0.35652    1.000
    N3330    N        0.70144    0.28539    0.35727    1.000
    N3331    N        0.69043    0.27833    0.25009    1.000
    Si3332   Si       0.62560    0.24178    0.29206    1.000
    N3333    N        0.54996    0.26424    0.45475    1.000
    N3334    N        0.57655    0.24844    0.38859    1.000
    N3335    N        0.60816    0.30009    0.42995    1.000
    N3336    N        0.73436    0.28894    0.41618    1.000
    N3337    N        0.64067    0.25867    0.38202    1.000
    Si3338   Si       0.61784    0.29565    0.38717    1.000
    N3339    N        0.68007    0.28675    0.44888    1.000
    Si3340   Si       0.63629    0.27942    0.45408    1.000
    N3341    N        0.73568    0.25071    0.47901    1.000
    Si3342   Si       0.69134    0.26114    0.48324    1.000
    Si3343   Si       0.54054    0.27735    0.55211    1.000
    N3344    N        0.51774    0.26911    0.51802    1.000
    N3345    N        0.52729    0.26017    0.58957    1.000
    Si3346   Si       0.60354    0.26681    0.58532    1.000
    N3347    N        0.57922    0.25925    0.54939    1.000
    Si3348   Si       0.50504    0.28491    0.61788    1.000
    Si3349   Si       0.72158    0.27455    0.55086    1.000
    N3350    N        0.69763    0.29148    0.51748    1.000
    N3351    N        0.68585    0.26245    0.56974    1.000
    Si3352   Si       0.65815    0.28087    0.53716    1.000
    N3353    N        0.63043    0.29651    0.56907    1.000
    Si3354   Si       0.66852    0.24741    0.60668    1.000
    N3355    N        0.64320    0.26938    0.49755    1.000
    N3356    N        0.58985    0.28090    0.62382    1.000
    Si3357   Si       0.56570    0.25455    0.64742    1.000
    N3358    N        0.52209    0.26642    0.65397    1.000
    Si3359   Si       0.55226    0.25444    0.71926    1.000
    N3360    N        0.58226    0.25349    0.68808    1.000
    N3361    N        0.54347    0.29628    0.72776    1.000
    N3362    N        0.71997    0.24855    0.66892    1.000
    Si3363   Si       0.66830    0.24410    0.74253    1.000
    Si3364   Si       0.70303    0.28795    0.65862    1.000
    N3365    N        0.67183    0.28545    0.62918    1.000
    N3366    N        0.62315    0.27219    0.74189    1.000
    N3367    N        0.70240    0.29631    0.70400    1.000
    Si3368   Si       0.62300    0.26665    0.69971    1.000
    Si3369   Si       0.73084    0.26383    0.71126    1.000
    Si3370   Si       0.59890    0.28753    0.82376    1.000
    N3371    N        0.56529    0.29902    0.84716    1.000
    N3372    N        0.60190    0.24716    0.80762    1.000
    N3373    N        0.49026    0.29778    0.83358    1.000
    Si3374   Si       0.70743    0.26905    0.80476    1.000
    N3375    N        0.67587    0.27500    0.77633    1.000
    N3376    N        0.69991    0.28640    0.84610    1.000
    N3377    N        0.62983    0.28432    0.85516    1.000
    Si3378   Si       0.66736    0.26666    0.86543    1.000
    Si3379   Si       0.64292    0.30119    0.76576    1.000
    N3380    N        0.58617    0.27984    0.91493    1.000
    N3381    N        0.51935    0.27942    0.89764    1.000
    Si3382   Si       0.57639    0.27554    0.95912    1.000
    Si3383   Si       0.55830    0.27329    0.88072    1.000
    N3384    N        0.53444    0.28328    0.96750    1.000
    Si3385   Si       0.50140    0.28105    0.93782    1.000
    N3386    N        0.71606    0.28894    0.94039    1.000
    N3387    N        0.66278    0.27442    0.90816    1.000
    Si3388   Si       0.72845    0.25002    0.95075    1.000
    Si3389   Si       0.62253    0.29474    0.89826    1.000
    N3390    N        0.64067    0.26365    0.96939    1.000
    N3391    N        0.57472    0.31549    0.05963    1.000
    Si3392   Si       0.53202    0.33512    0.06721    1.000
    N3393    N        0.53265    0.33706    0.01548    1.000
    Si3394   Si       0.61247    0.33547    0.05219    1.000
    Si3395   Si       0.58713    0.35709    0.11077    1.000
    N3396    N        0.48881    0.35089    0.06201    1.000
    Si3397   Si       0.49002    0.34815    0.01704    1.000
    Si3398   Si       0.73611    0.33458    0.08250    1.000
    N3399    N        0.64262    0.30992    0.03316    1.000
    N3400    N        0.69254    0.33135    0.09247    1.000
    N3401    N        0.62425    0.34864    0.09074    1.000
    N3402    N        0.54377    0.32721    0.20506    1.000
    Si3403   Si       0.56650    0.35043    0.17534    1.000
    N3404    N        0.57523    0.32532    0.13952    1.000
    Si3405   Si       0.54260    0.33479    0.24836    1.000
    N3406    N        0.60405    0.36473    0.19350    1.000
    Si3407   Si       0.61287    0.36255    0.23690    1.000
    N3408    N        0.58786    0.32954    0.25365    1.000
    Si3409   Si       0.68799    0.34497    0.16723    1.000
    N3410    N        0.72803    0.35448    0.15619    1.000
    Si3411   Si       0.67137    0.31848    0.23997    1.000
    N3412    N        0.69010    0.34394    0.21097    1.000
    Si3413   Si       0.57431    0.34010    0.34664    1.000
    N3414    N        0.53101    0.33622    0.33965    1.000
    N3415    N        0.59760    0.35654    0.31453    1.000
    Si3416   Si       0.49866    0.35960    0.35786    1.000
    N3417    N        0.51960    0.30690    0.27222    1.000
    Si3418   Si       0.51283    0.30394    0.31465    1.000
    Si3419   Si       0.61935    0.32671    0.29068    1.000
    N3420    N        0.71091    0.35178    0.27821    1.000
    N3421    N        0.64664    0.34676    0.25998    1.000
    Si3422   Si       0.67837    0.32148    0.35324    1.000
    N3423    N        0.65515    0.32441    0.31649    1.000
    N3424    N        0.69869    0.36099    0.34153    1.000
    Si3425   Si       0.67578    0.36214    0.30154    1.000
    N3426    N        0.54047    0.32905    0.41676    1.000
    N3427    N        0.57370    0.33161    0.47863    1.000
    Si3428   Si       0.49716    0.32818    0.41918    1.000
    Si3429   Si       0.56697    0.30352    0.44548    1.000
    N3430    N        0.64674    0.32787    0.38185    1.000
    N3431    N        0.72728    0.33610    0.46643    1.000
    N3432    N        0.69846    0.35328    0.40792    1.000
    Si3433   Si       0.70680    0.31797    0.43216    1.000
    N3434    N        0.54264    0.32016    0.55273    1.000
    Si3435   Si       0.54896    0.33955    0.51328    1.000
    Si3436   Si       0.50895    0.33938    0.57282    1.000
    N3437    N        0.51565    0.32729    0.61468    1.000
    N3438    N        0.50640    0.33367    0.49790    1.000
    N3439    N        0.68103    0.33661    0.57442    1.000
    Si3440   Si       0.72293    0.34166    0.56904    1.000
    Si3441   Si       0.65593    0.31556    0.60032    1.000
    N3442    N        0.66968    0.35534    0.50726    1.000
    Si3443   Si       0.70425    0.33203    0.50204    1.000
    Si3444   Si       0.60165    0.31603    0.64985    1.000
    Si3445   Si       0.55564    0.33254    0.70753    1.000
    N3446    N        0.59109    0.34317    0.73112    1.000
    N3447    N        0.56545    0.33704    0.66447    1.000
    Si3448   Si       0.54137    0.35807    0.63472    1.000
    N3449    N        0.52556    0.35706    0.72762    1.000
    N3450    N        0.65714    0.33335    0.74221    1.000
    N3451    N        0.62748    0.34352    0.62266    1.000
    Si3452   Si       0.69659    0.33404    0.72282    1.000
    Si3453   Si       0.62756    0.34398    0.70827    1.000
    Si3454   Si       0.72998    0.35613    0.65423    1.000
    N3455    N        0.73449    0.31341    0.64377    1.000
    N3456    N        0.62454    0.30776    0.68483    1.000
    N3457    N        0.72365    0.35791    0.69798    1.000
    N3458    N        0.54152    0.32622    0.78772    1.000
    Si3459   Si       0.53029    0.31925    0.82929    1.000
    Si3460   Si       0.57956    0.33972    0.77411    1.000
    Si3461   Si       0.51631    0.31763    0.75278    1.000
    N3462    N        0.61371    0.31732    0.79453    1.000
    N3463    N        0.71503    0.35248    0.76039    1.000
    Si3464   Si       0.72357    0.31753    0.86289    1.000
    N3465    N        0.73268    0.34753    0.83398    1.000
    Si3466   Si       0.62128    0.35822    0.81867    1.000
    N3467    N        0.59382    0.31112    0.98194    1.000
    Si3468   Si       0.57022    0.34572    0.99634    1.000
    N3469    N        0.63887    0.33180    0.91007    1.000
    Si3470   Si       0.67826    0.31283    0.92810    1.000
    Si3471   Si       0.63624    0.30253    0.98852    1.000
    N3472    N        0.71017    0.33726    0.90330    1.000
    N3473    N        0.66631    0.33032    0.97009    1.000
    Si3474   Si       0.52438    0.39637    0.11834    1.000
    N3475    N        0.54744    0.36829    0.09268    1.000
    Si3476   Si       0.60575    0.39719    0.00206    1.000
    N3477    N        0.59547    0.36623    0.02738    1.000
    N3478    N        0.67915    0.40011    0.07795    1.000
    Si3479   Si       0.72229    0.41100    0.07750    1.000
    Si3480   Si       0.66354    0.36499    0.10330    1.000
    N3481    N        0.72771    0.41529    0.12018    1.000
    N3482    N        0.72106    0.37188    0.99656    1.000
    N3483    N        0.59884    0.39585    0.13050    1.000
    Si3484   Si       0.52549    0.40701    0.19152    1.000
    N3485    N        0.54216    0.38368    0.15945    1.000
    N3486    N        0.55619    0.42332    0.21526    1.000
    N3487    N        0.66135    0.37400    0.14663    1.000
    Si3488   Si       0.62489    0.39073    0.16421    1.000
    N3489    N        0.68776    0.40954    0.24121    1.000
    Si3490   Si       0.70892    0.37310    0.23729    1.000
    N3491    N        0.59893    0.39733    0.25956    1.000
    N3492    N        0.52704    0.37442    0.25638    1.000
    Si3493   Si       0.55735    0.40769    0.25344    1.000
    Si3494   Si       0.61208    0.39705    0.30125    1.000
    Si3495   Si       0.60125    0.40613    0.36898    1.000
    N3496    N        0.65471    0.39914    0.30767    1.000
    N3497    N        0.58048    0.36866    0.37807    1.000
    N3498    N        0.51619    0.38858    0.38692    1.000
    N3499    N        0.56797    0.38832    0.44231    1.000
    Si3500   Si       0.54890    0.37039    0.40757    1.000
    Si3501   Si       0.59874    0.36486    0.46584    1.000
    N3502    N        0.49786    0.40114    0.49866    1.000
    N3503    N        0.63838    0.36727    0.44498    1.000
    Si3504   Si       0.65645    0.38708    0.47909    1.000
    N3505    N        0.61467    0.39808    0.49224    1.000
    N3506    N        0.64232    0.40020    0.38173    1.000
    Si3507   Si       0.72450    0.36936    0.37790    1.000
    Si3508   Si       0.65559    0.36471    0.40432    1.000
    Si3509   Si       0.52357    0.40369    0.53489    1.000
    N3510    N        0.55849    0.38080    0.52555    1.000
    Si3511   Si       0.59758    0.40094    0.53137    1.000
    Si3512   Si       0.60715    0.37496    0.59843    1.000
    N3513    N        0.49932    0.38056    0.56425    1.000
    N3514    N        0.56570    0.37282    0.60355    1.000
    N3515    N        0.62026    0.37582    0.55838    1.000
    Si3516   Si       0.70461    0.39728    0.60012    1.000
    N3517    N        0.68738    0.39969    0.56020    1.000
    Si3518   Si       0.66094    0.36499    0.54834    1.000
    N3519    N        0.73913    0.37251    0.59258    1.000
    N3520    N        0.67300    0.42357    0.49574    1.000
    N3521    N        0.51547    0.38927    0.64999    1.000
    Si3522   Si       0.52511    0.39978    0.73551    1.000
    N3523    N        0.62753    0.40657    0.62103    1.000
    N3524    N        0.69055    0.37420    0.63632    1.000
    Si3525   Si       0.65170    0.41655    0.70338    1.000
    N3526    N        0.63973    0.37807    0.68503    1.000
    N3527    N        0.67174    0.40091    0.73742    1.000
    Si3528   Si       0.64954    0.37552    0.64405    1.000
    N3529    N        0.58910    0.37666    0.79469    1.000
    Si3530   Si       0.56909    0.38883    0.85569    1.000
    N3531    N        0.60816    0.36737    0.85811    1.000
    N3532    N        0.53136    0.36670    0.84415    1.000
    Si3533   Si       0.49458    0.38938    0.84732    1.000
    Si3534   Si       0.57483    0.41679    0.79102    1.000
    N3535    N        0.53795    0.42003    0.77161    1.000
    N3536    N        0.71503    0.41150    0.83209    1.000
    Si3537   Si       0.67192    0.40136    0.83580    1.000
    N3538    N        0.65906    0.37295    0.80641    1.000
    Si3539   Si       0.67227    0.36983    0.76666    1.000
    Si3540   Si       0.58549    0.40141    0.93411    1.000
    N3541    N        0.56093    0.39770    0.89847    1.000
    N3542    N        0.57795    0.38184    0.97159    1.000
    Si3543   Si       0.50446    0.41735    0.98007    1.000
    N3544    N        0.50921    0.42322    0.93823    1.000
    N3545    N        0.62905    0.39785    0.92695    1.000
    N3546    N        0.64899    0.39607    0.99727    1.000
    Si3547   Si       0.70756    0.38136    0.90489    1.000
    Si3548   Si       0.73315    0.40457    0.97077    1.000
    N3549    N        0.67384    0.38893    0.87872    1.000
    N3550    N        0.69595    0.39816    0.94439    1.000
    Si3551   Si       0.63442    0.37074    0.89326    1.000
    Si3552   Si       0.67979    0.37069    0.97990    1.000
    N3553    N        0.54549    0.43486    0.11038    1.000
    N3554    N        0.60400    0.43768    0.01629    1.000
    Si3555   Si       0.56780    0.46123    0.01145    1.000
    Si3556   Si       0.53235    0.46452    0.08243    1.000
    Si3557   Si       0.50176    0.47057    0.01823    1.000
    N3558    N        0.49468    0.46304    0.06071    1.000
    N3559    N        0.53138    0.44017    0.00582    1.000
    Si3560   Si       0.59051    0.43713    0.12003    1.000
    N3561    N        0.56194    0.47649    0.05204    1.000
    N3562    N        0.61844    0.44545    0.08610    1.000
    N3563    N        0.66802    0.45797    0.03908    1.000
    Si3564   Si       0.66231    0.44111    0.07963    1.000
    Si3565   Si       0.70880    0.46172    0.02161    1.000
    N3566    N        0.68610    0.46664    0.10578    1.000
    N3567    N        0.73746    0.44588    0.05400    1.000
    Si3568   Si       0.64750    0.44002    0.00549    1.000
    N3569    N        0.58037    0.46478    0.15386    1.000
    N3570    N        0.50907    0.44122    0.16584    1.000
    Si3571   Si       0.58662    0.44819    0.19572    1.000
    Si3572   Si       0.53461    0.47068    0.14744    1.000
    Si3573   Si       0.65532    0.46239    0.18810    1.000
    N3574    N        0.62667    0.42898    0.18564    1.000
    Si3575   Si       0.71312    0.45023    0.13849    1.000
    N3576    N        0.65447    0.47393    0.23033    1.000
    N3577    N        0.69080    0.44632    0.17439    1.000
    Si3578   Si       0.57282    0.45437    0.30556    1.000
    N3579    N        0.54125    0.43732    0.28028    1.000
    N3580    N        0.50011    0.44600    0.33726    1.000
    Si3581   Si       0.50336    0.45572    0.29328    1.000
    N3582    N        0.59004    0.42240    0.33069    1.000
    N3583    N        0.59896    0.48321    0.28456    1.000
    N3584    N        0.67116    0.46446    0.29358    1.000
    Si3585   Si       0.66770    0.43763    0.32652    1.000
    N3586    N        0.70655    0.43897    0.34547    1.000
    N3587    N        0.64670    0.46018    0.35721    1.000
    Si3588   Si       0.68273    0.44878    0.25378    1.000
    N3589    N        0.72153    0.46838    0.25746    1.000
    Si3590   Si       0.72438    0.47739    0.35629    1.000
    N3591    N        0.53056    0.44176    0.44302    1.000
    Si3592   Si       0.49749    0.43473    0.46960    1.000
    N3593    N        0.59354    0.43536    0.40315    1.000
    Si3594   Si       0.57209    0.43202    0.44153    1.000
    N3595    N        0.59338    0.45482    0.47286    1.000
    Si3596   Si       0.62759    0.44183    0.49728    1.000
    N3597    N        0.67667    0.43534    0.42473    1.000
    Si3598   Si       0.71848    0.44281    0.41581    1.000
    Si3599   Si       0.64230    0.44342    0.39979    1.000
    N3600    N        0.53372    0.44372    0.54155    1.000
    Si3601   Si       0.49557    0.46544    0.53583    1.000
    N3602    N        0.61381    0.44146    0.53831    1.000
    N3603    N        0.57635    0.47867    0.58627    1.000
    Si3604   Si       0.61602    0.47227    0.56860    1.000
    N3605    N        0.68883    0.46352    0.54996    1.000
    N3606    N        0.71656    0.43747    0.61269    1.000
    Si3607   Si       0.70953    0.47268    0.58753    1.000
    N3608    N        0.63778    0.47315    0.60654    1.000
    Si3609   Si       0.70118    0.42716    0.53007    1.000
    N3610    N        0.59192    0.45907    0.65675    1.000
    Si3611   Si       0.57769    0.45186    0.69829    1.000
    N3612    N        0.52628    0.47062    0.64899    1.000
    Si3613   Si       0.51898    0.42978    0.66669    1.000
    N3614    N        0.54405    0.42331    0.70334    1.000
    N3615    N        0.61410    0.43724    0.71750    1.000
    Si3616   Si       0.69763    0.46471    0.67904    1.000
    N3617    N        0.66279    0.44047    0.66797    1.000
    N3618    N        0.69440    0.46051    0.72184    1.000
    Si3619   Si       0.63074    0.44528    0.63953    1.000
    N3620    N        0.50638    0.46637    0.81390    1.000
    Si3621   Si       0.49954    0.43830    0.78060    1.000
    N3622    N        0.60234    0.44859    0.78639    1.000
    Si3623   Si       0.54181    0.46274    0.83770    1.000
    N3624    N        0.56332    0.42664    0.83241    1.000
    Si3625   Si       0.60968    0.46363    0.82823    1.000
    Si3626   Si       0.61005    0.46742    0.74946    1.000
    N3627    N        0.64230    0.43325    0.84265    1.000
    Si3628   Si       0.71550    0.45179    0.81676    1.000
    N3629    N        0.69045    0.44760    0.78217    1.000
    Si3630   Si       0.66214    0.46711    0.86465    1.000
    N3631    N        0.69993    0.47815    0.84671    1.000
    Si3632   Si       0.70640    0.42565    0.74648    1.000
    N3633    N        0.53883    0.46211    0.88206    1.000
    N3634    N        0.57658    0.44469    0.93685    1.000
    Si3635   Si       0.54139    0.43371    0.91299    1.000
    Si3636   Si       0.66273    0.42641    0.93579    1.000
    N3637    N        0.65693    0.45629    0.96748    1.000
    N3638    N        0.73051    0.44455    0.98748    1.000
    N3639    N        0.66685    0.46041    0.90722    1.000
    N3640    N        0.53061    0.49736    0.11261    1.000
    N3641    N        0.60072    0.50521    0.10213    1.000
    N3642    N        0.50127    0.51329    0.01324    1.000
    Si3643   Si       0.59674    0.52632    0.00494    1.000
    Si3644   Si       0.60194    0.48140    0.06591    1.000
    N3645    N        0.62262    0.50633    0.03589    1.000
    N3646    N        0.69990    0.50345    0.01318    1.000
    Si3647   Si       0.70062    0.50921    0.10262    1.000
    Si3648   Si       0.66523    0.50324    0.04157    1.000
    N3649    N        0.67025    0.52704    0.07717    1.000
    N3650    N        0.73758    0.51418    0.08366    1.000
    N3651    N        0.50844    0.52088    0.23340    1.000
    N3652    N        0.58175    0.48852    0.21669    1.000
    N3653    N        0.52392    0.50805    0.17404    1.000
    Si3654   Si       0.60375    0.50036    0.14602    1.000
    Si3655   Si       0.54740    0.51601    0.21285    1.000
    Si3656   Si       0.51654    0.53340    0.13689    1.000
    Si3657   Si       0.66815    0.53403    0.16045    1.000
    N3658    N        0.70580    0.52564    0.14204    1.000
    N3659    N        0.64349    0.49888    0.16524    1.000
    N3660    N        0.73490    0.51118    0.20546    1.000
    Si3661   Si       0.58448    0.51495    0.31211    1.000
    N3662    N        0.60183    0.51738    0.35159    1.000
    N3663    N        0.54717    0.48915    0.32095    1.000
    Si3664   Si       0.51807    0.48265    0.35370    1.000
    Si3665   Si       0.61679    0.49245    0.24464    1.000
    N3666    N        0.61937    0.53666    0.25068    1.000
    N3667    N        0.71170    0.50845    0.32906    1.000
    Si3668   Si       0.70201    0.49620    0.28835    1.000
    N3669    N        0.68933    0.53161    0.26660    1.000
    Si3670   Si       0.63783    0.50114    0.37203    1.000
    N3671    N        0.66083    0.53743    0.36506    1.000
    Si3672   Si       0.56935    0.52594    0.37980    1.000
    N3673    N        0.60823    0.52530    0.46396    1.000
    N3674    N        0.54283    0.50888    0.46016    1.000
    Si3675   Si       0.57946    0.49622    0.48216    1.000
    N3676    N        0.54165    0.49280    0.38856    1.000
    Si3677   Si       0.52614    0.48284    0.42893    1.000
    N3678    N        0.71898    0.48237    0.39982    1.000
    N3679    N        0.63643    0.48668    0.41360    1.000
    N3680    N        0.67924    0.52393    0.44616    1.000
    Si3681   Si       0.71527    0.52163    0.42003    1.000
    N3682    N        0.64757    0.48176    0.49325    1.000
    Si3683   Si       0.64321    0.50258    0.45317    1.000
    N3684    N        0.73897    0.53387    0.45399    1.000
    N3685    N        0.57689    0.50568    0.52386    1.000
    N3686    N        0.51259    0.50144    0.55693    1.000
    Si3687   Si       0.55201    0.48264    0.55078    1.000
    Si3688   Si       0.60509    0.53454    0.53858    1.000
    Si3689   Si       0.65124    0.51423    0.59845    1.000
    Si3690   Si       0.67011    0.49661    0.52849    1.000
    N3691    N        0.63743    0.51026    0.55505    1.000
    N3692    N        0.69463    0.51203    0.60300    1.000
    N3693    N        0.70383    0.52091    0.51871    1.000
    N3694    N        0.49384    0.53302    0.62425    1.000
    N3695    N        0.52569    0.53534    0.74361    1.000
    N3696    N        0.57727    0.48530    0.72646    1.000
    Si3697   Si       0.56959    0.52632    0.73763    1.000
    N3698    N        0.56981    0.52513    0.63642    1.000
    Si3699   Si       0.56445    0.48245    0.62957    1.000
    Si3700   Si       0.71560    0.53047    0.63467    1.000
    N3701    N        0.70785    0.50573    0.67061    1.000
    N3702    N        0.50647    0.51531    0.86005    1.000
    N3703    N        0.57199    0.49310    0.82823    1.000
    N3704    N        0.59296    0.53605    0.77439    1.000
    Si3705   Si       0.57582    0.53616    0.81744    1.000
    N3706    N        0.63239    0.49349    0.84729    1.000
    N3707    N        0.71598    0.50995    0.76398    1.000
    Si3708   Si       0.71598    0.51616    0.85982    1.000
    Si3709   Si       0.68377    0.48240    0.75589    1.000
    N3710    N        0.64389    0.49582    0.75345    1.000
    Si3711   Si       0.64658    0.53394    0.83971    1.000
    N3712    N        0.66410    0.53690    0.80016    1.000
    Si3713   Si       0.63642    0.53660    0.76628    1.000
    N3714    N        0.57601    0.49370    0.98475    1.000
    N3715    N        0.54818    0.51033    0.92425    1.000
    Si3716   Si       0.51621    0.49503    0.89924    1.000
    Si3717   Si       0.57977    0.48768    0.94082    1.000
    N3718    N        0.67860    0.53448    0.86958    1.000
    N3719    N        0.61829    0.50551    0.92994    1.000
    Si3720   Si       0.65696    0.48897    0.93895    1.000
    N3721    N        0.68756    0.52178    0.94294    1.000
    Si3722   Si       0.70975    0.52751    0.97912    1.000
    N3723    N        0.57065    0.55236    0.02533    1.000
    Si3724   Si       0.58879    0.58616    0.04782    1.000
    N3725    N        0.60484    0.56689    0.08402    1.000
    Si3726   Si       0.52745    0.55079    0.01228    1.000
    N3727    N        0.50945    0.58436    0.03476    1.000
    N3728    N        0.53823    0.56269    0.10960    1.000
    Si3729   Si       0.57680    0.54127    0.10454    1.000
    Si3730   Si       0.64844    0.56151    0.08925    1.000
    N3731    N        0.62790    0.59610    0.03157    1.000
    N3732    N        0.51253    0.57412    0.16755    1.000
    Si3733   Si       0.52887    0.58559    0.20483    1.000
    N3734    N        0.56012    0.55802    0.21792    1.000
    N3735    N        0.50007    0.58898    0.23806    1.000
    Si3736   Si       0.61253    0.57926    0.14852    1.000
    N3737    N        0.58896    0.54236    0.14912    1.000
    Si3738   Si       0.54008    0.59719    0.13800    1.000
    Si3739   Si       0.66107    0.58847    0.20187    1.000
    N3740    N        0.67704    0.54837    0.20096    1.000
    N3741    N        0.65127    0.56671    0.13445    1.000
    N3742    N        0.61906    0.58996    0.18968    1.000
    Si3743   Si       0.71042    0.53879    0.22885    1.000
    N3744    N        0.54512    0.55606    0.35867    1.000
    Si3745   Si       0.53762    0.56965    0.31672    1.000
    N3746    N        0.56662    0.55048    0.29156    1.000
    N3747    N        0.50039    0.55219    0.29974    1.000
    Si3748   Si       0.58574    0.56336    0.25370    1.000
    N3749    N        0.64036    0.57923    0.30223    1.000
    Si3750   Si       0.65191    0.57605    0.34379    1.000
    N3751    N        0.69678    0.58139    0.33615    1.000
    Si3752   Si       0.65516    0.55676    0.26467    1.000
    Si3753   Si       0.70390    0.54367    0.35415    1.000
    N3754    N        0.66085    0.59467    0.24482    1.000
    N3755    N        0.57385    0.55568    0.41215    1.000
    Si3756   Si       0.58816    0.56142    0.45136    1.000
    N3757    N        0.55003    0.57509    0.47138    1.000
    Si3758   Si       0.53876    0.57765    0.39824    1.000
    N3759    N        0.50511    0.55747    0.41869    1.000
    Si3760   Si       0.52010    0.54611    0.45800    1.000
    N3761    N        0.61609    0.59375    0.44774    1.000
    Si3762   Si       0.63783    0.59239    0.48671    1.000
    N3763    N        0.72905    0.54926    0.38881    1.000
    N3764    N        0.67814    0.57753    0.48616    1.000
    Si3765   Si       0.70206    0.54162    0.48027    1.000
    N3766    N        0.58840    0.56113    0.57112    1.000
    Si3767   Si       0.59351    0.55551    0.61368    1.000
    N3768    N        0.61431    0.57100    0.51441    1.000
    Si3769   Si       0.59196    0.59430    0.54511    1.000
    N3770    N        0.63603    0.54968    0.61982    1.000
    N3771    N        0.74060    0.58561    0.49873    1.000
    N3772    N        0.52186    0.56273    0.68171    1.000
    Si3773   Si       0.56238    0.55420    0.66716    1.000
    N3774    N        0.58571    0.55351    0.70566    1.000
    Si3775   Si       0.51959    0.57235    0.72469    1.000
    N3776    N        0.57077    0.58786    0.63881    1.000
    Si3777   Si       0.49324    0.56766    0.64850    1.000
    Si3778   Si       0.69327    0.58464    0.73476    1.000
    Si3779   Si       0.62118    0.57961    0.71101    1.000
    N3780    N        0.70196    0.57267    0.63906    1.000
    Si3781   Si       0.65851    0.58241    0.63816    1.000
    N3782    N        0.65349    0.56231    0.73526    1.000
    N3783    N        0.72266    0.57894    0.70515    1.000
    N3784    N        0.63604    0.59675    0.67381    1.000
    N3785    N        0.54317    0.56173    0.82824    1.000
    Si3786   Si       0.51043    0.55878    0.85956    1.000
    N3787    N        0.61097    0.55817    0.83515    1.000
    Si3788   Si       0.70612    0.54328    0.79146    1.000
    N3789    N        0.71455    0.58247    0.77335    1.000
    N3790    N        0.73172    0.54204    0.82693    1.000
    N3791    N        0.52062    0.57465    0.89902    1.000
    Si3792   Si       0.54482    0.55540    0.93162    1.000
    N3793    N        0.53000    0.56395    0.97039    1.000
    N3794    N        0.58334    0.57375    0.92545    1.000
    N3795    N        0.71916    0.56775    0.99653    1.000
    N3796    N        0.72105    0.57608    0.89604    1.000
    N3797    N        0.65213    0.57061    0.92013    1.000
    Si3798   Si       0.68909    0.55043    0.90898    1.000
    N3799    N        0.61971    0.55160    0.97735    1.000
    Si3800   Si       0.61887    0.54754    0.93440    1.000
    N3801    N        0.56860    0.62552    0.04918    1.000
    Si3802   Si       0.52483    0.62665    0.03928    1.000
    N3803    N        0.50361    0.65172    0.06815    1.000
    N3804    N        0.52819    0.64657    0.00058    1.000
    Si3805   Si       0.48882    0.64402    0.10798    1.000
    Si3806   Si       0.71309    0.61622    0.07310    1.000
    N3807    N        0.69546    0.62978    0.03312    1.000
    Si3808   Si       0.65582    0.62412    0.04975    1.000
    N3809    N        0.70849    0.63052    0.11650    1.000
    N3810    N        0.67128    0.59827    0.08248    1.000
    Si3811   Si       0.59609    0.65144    0.13325    1.000
    N3812    N        0.51760    0.63321    0.13682    1.000
    Si3813   Si       0.58946    0.61772    0.20808    1.000
    N3814    N        0.54772    0.62248    0.19736    1.000
    N3815    N        0.58074    0.60996    0.14148    1.000
    Si3816   Si       0.53420    0.65663    0.17181    1.000
    N3817    N        0.60843    0.65480    0.19921    1.000
    Si3818   Si       0.70984    0.64406    0.18123    1.000
    N3819    N        0.72187    0.63837    0.22494    1.000
    N3820    N        0.64113    0.64037    0.12940    1.000
    Si3821   Si       0.67319    0.60835    0.12951    1.000
    N3822    N        0.68589    0.60861    0.17256    1.000
    Si3823   Si       0.57945    0.63298    0.28663    1.000
    Si3824   Si       0.54686    0.63684    0.34970    1.000
    N3825    N        0.55351    0.61099    0.31644    1.000
    N3826    N        0.59041    0.60728    0.25204    1.000
    N3827    N        0.69153    0.63249    0.29048    1.000
    Si3828   Si       0.71331    0.61957    0.32572    1.000
    Si3829   Si       0.65182    0.61683    0.28108    1.000
    N3830    N        0.62214    0.64445    0.29762    1.000
    Si3831   Si       0.62728    0.64540    0.34275    1.000
    N3832    N        0.71503    0.64394    0.36096    1.000
    N3833    N        0.63675    0.60975    0.36646    1.000
    N3834    N        0.60255    0.65097    0.41115    1.000
    N3835    N        0.54394    0.61970    0.39162    1.000
    N3836    N        0.54562    0.64576    0.45942    1.000
    Si3837   Si       0.56076    0.64787    0.42011    1.000
    Si3838   Si       0.53906    0.61233    0.49286    1.000
    N3839    N        0.71407    0.64164    0.48172    1.000
    N3840    N        0.73295    0.61033    0.42219    1.000
    Si3841   Si       0.70532    0.63993    0.40514    1.000
    Si3842   Si       0.67409    0.65163    0.46520    1.000
    N3843    N        0.66832    0.63325    0.42685    1.000
    Si3844   Si       0.63068    0.61606    0.41299    1.000
    N3845    N        0.65067    0.63406    0.49968    1.000
    N3846    N        0.54413    0.64285    0.59585    1.000
    N3847    N        0.56012    0.62110    0.52983    1.000
    Si3848   Si       0.50386    0.64479    0.61005    1.000
    Si3849   Si       0.55712    0.65569    0.55655    1.000
    N3850    N        0.49369    0.60253    0.62342    1.000
    N3851    N        0.49630    0.60518    0.49911    1.000
    N3852    N        0.62100    0.62296    0.56006    1.000
    N3853    N        0.66587    0.61317    0.60660    1.000
    N3854    N        0.70189    0.62372    0.54828    1.000
    Si3855   Si       0.63684    0.64322    0.59440    1.000
    Si3856   Si       0.71012    0.61237    0.59553    1.000
    Si3857   Si       0.70231    0.60831    0.50784    1.000
    N3858    N        0.71397    0.65853    0.60415    1.000
    Si3859   Si       0.49388    0.62644    0.74249    1.000
    N3860    N        0.60853    0.64192    0.62728    1.000
    Si3861   Si       0.56627    0.62929    0.63144    1.000
    N3862    N        0.53559    0.61197    0.73772    1.000
    N3863    N        0.60752    0.61352    0.73335    1.000
    N3864    N        0.54068    0.65138    0.65930    1.000
    Si3865   Si       0.69222    0.65415    0.69647    1.000
    Si3866   Si       0.62353    0.63909    0.66842    1.000
    N3867    N        0.72471    0.64155    0.66942    1.000
    N3868    N        0.67806    0.62566    0.72679    1.000
    Si3869   Si       0.72701    0.59615    0.66521    1.000
    N3870    N        0.53957    0.62909    0.85650    1.000
    N3871    N        0.57669    0.61076    0.79914    1.000
    Si3872   Si       0.57190    0.62460    0.75652    1.000
    Si3873   Si       0.53848    0.60553    0.81902    1.000
    N3874    N        0.49645    0.60641    0.80688    1.000
    Si3875   Si       0.61466    0.59843    0.81951    1.000
    N3876    N        0.62361    0.62675    0.85100    1.000
    N3877    N        0.72589    0.61834    0.83430    1.000
    N3878    N        0.64645    0.60854    0.79112    1.000
    Si3879   Si       0.64387    0.62932    0.75327    1.000
    N3880    N        0.59198    0.61844    0.98009    1.000
    Si3881   Si       0.58392    0.61613    0.93798    1.000
    Si3882   Si       0.52130    0.61784    0.89522    1.000
    N3883    N        0.54788    0.63189    0.92521    1.000
    N3884    N        0.66495    0.61000    0.97403    1.000
    N3885    N        0.73607    0.62803    0.96857    1.000
    Si3886   Si       0.63934    0.64771    0.88387    1.000
    N3887    N        0.67937    0.63068    0.89865    1.000
    N3888    N        0.62096    0.63263    0.92172    1.000
    Si3889   Si       0.71323    0.61575    0.87714    1.000
    Si3890   Si       0.65760    0.61121    0.93139    1.000
    Si3891   Si       0.70424    0.61126    0.99287    1.000
    Si3892   Si       0.62670    0.59457    0.98969    1.000
    N3893    N        0.57613    0.68693    0.02573    1.000
    N3894    N        0.58952    0.67512    0.09816    1.000
    Si3895   Si       0.59051    0.66030    0.05893    1.000
    Si3896   Si       0.61194    0.71209    0.09690    1.000
    N3897    N        0.52856    0.71669    0.09397    1.000
    Si3898   Si       0.70893    0.67125    0.03984    1.000
    Si3899   Si       0.64351    0.70038    0.03245    1.000
    N3900    N        0.68099    0.70389    0.05279    1.000
    N3901    N        0.72473    0.68847    0.00500    1.000
    N3902    N        0.73917    0.66016    0.07030    1.000
    N3903    N        0.63331    0.65939    0.04811    1.000
    N3904    N        0.70515    0.69933    0.12109    1.000
    Si3905   Si       0.58916    0.69439    0.19272    1.000
    N3906    N        0.56458    0.68275    0.15583    1.000
    N3907    N        0.50436    0.68403    0.18735    1.000
    N3908    N        0.55796    0.71171    0.21586    1.000
    Si3909   Si       0.66960    0.67573    0.13187    1.000
    N3910    N        0.67917    0.67389    0.17526    1.000
    Si3911   Si       0.71910    0.70900    0.16523    1.000
    N3912    N        0.64485    0.70974    0.12412    1.000
    Si3913   Si       0.64854    0.67416    0.20519    1.000
    N3914    N        0.62812    0.71601    0.19300    1.000
    N3915    N        0.65907    0.66738    0.24630    1.000
    N3916    N        0.55373    0.66761    0.27553    1.000
    Si3917   Si       0.51430    0.66852    0.29352    1.000
    Si3918   Si       0.56472    0.70647    0.25799    1.000
    N3919    N        0.60835    0.70650    0.25754    1.000
    N3920    N        0.58479    0.65878    0.34891    1.000
    N3921    N        0.51211    0.65963    0.33555    1.000
    N3922    N        0.50558    0.71371    0.29565    1.000
    N3923    N        0.73643    0.70533    0.34465    1.000
    N3924    N        0.65465    0.67855    0.35366    1.000
    Si3925   Si       0.63756    0.68585    0.27972    1.000
    N3926    N        0.72232    0.69184    0.26865    1.000
    Si3927   Si       0.69895    0.69304    0.36651    1.000
    Si3928   Si       0.70137    0.65795    0.25632    1.000
    N3929    N        0.55374    0.69063    0.40638    1.000
    Si3930   Si       0.51427    0.71045    0.40037    1.000
    Si3931   Si       0.51865    0.67839    0.46307    1.000
    Si3932   Si       0.59297    0.68348    0.38204    1.000
    Si3933   Si       0.70612    0.70945    0.44013    1.000
    N3934    N        0.67021    0.69518    0.46031    1.000
    N3935    N        0.70993    0.68437    0.40702    1.000
    Si3936   Si       0.73578    0.67605    0.49829    1.000
    N3937    N        0.59143    0.68064    0.55780    1.000
    N3938    N        0.52490    0.68170    0.54470    1.000
    N3939    N        0.62102    0.69781    0.50585    1.000
    N3940    N        0.65730    0.67502    0.57150    1.000
    N3941    N        0.72076    0.68862    0.53728    1.000
    Si3942   Si       0.69805    0.66385    0.56326    1.000
    Si3943   Si       0.63039    0.66150    0.53375    1.000
    N3944    N        0.52051    0.69563    0.69913    1.000
    Si3945   Si       0.55942    0.68714    0.67788    1.000
    Si3946   Si       0.59864    0.68166    0.73077    1.000
    N3947    N        0.59480    0.66473    0.69083    1.000
    Si3948   Si       0.50058    0.66465    0.67529    1.000
    N3949    N        0.70419    0.68718    0.72209    1.000
    Si3950   Si       0.66306    0.70280    0.65593    1.000
    N3951    N        0.70619    0.71062    0.65617    1.000
    N3952    N        0.66136    0.66100    0.66673    1.000
    Si3953   Si       0.72976    0.67497    0.64238    1.000
    Si3954   Si       0.54650    0.69200    0.78734    1.000
    Si3955   Si       0.54454    0.67463    0.85008    1.000
    N3956    N        0.57345    0.69266    0.82144    1.000
    N3957    N        0.56650    0.66764    0.75701    1.000
    N3958    N        0.51170    0.70402    0.86767    1.000
    N3959    N        0.51990    0.66902    0.81202    1.000
    N3960    N        0.69706    0.66920    0.78918    1.000
    Si3961   Si       0.66100    0.69352    0.78220    1.000
    N3962    N        0.68939    0.67720    0.85931    1.000
    Si3963   Si       0.72689    0.67553    0.75898    1.000
    Si3964   Si       0.71684    0.66228    0.82859    1.000
    N3965    N        0.64150    0.70662    0.81893    1.000
    Si3966   Si       0.66169    0.70967    0.85552    1.000
    N3967    N        0.63335    0.67219    0.75669    1.000
    N3968    N        0.51289    0.69232    0.94826    1.000
    Si3969   Si       0.54956    0.67588    0.93071    1.000
    N3970    N        0.58029    0.68079    0.96089    1.000
    N3971    N        0.56740    0.68673    0.89203    1.000
    Si3972   Si       0.49480    0.66311    0.97760    1.000
    Si3973   Si       0.57147    0.65488    0.99458    1.000
    Si3974   Si       0.70485    0.67490    0.89931    1.000
    Si3975   Si       0.73432    0.67138    0.96409    1.000
    N3976    N        0.64351    0.70242    0.98917    1.000
    N3977    N        0.63506    0.68884    0.88495    1.000
    N3978    N        0.69774    0.68455    0.94516    1.000
    Si3979   Si       0.57791    0.73094    0.03337    1.000
    N3980    N        0.55702    0.76133    0.05499    1.000
    Si3981   Si       0.51908    0.75291    0.07399    1.000
    N3982    N        0.58807    0.74081    0.11863    1.000
    N3983    N        0.61701    0.72873    0.05643    1.000
    N3984    N        0.70105    0.76503    0.09774    1.000
    Si3985   Si       0.72425    0.73122    0.01842    1.000
    Si3986   Si       0.70362    0.72334    0.08586    1.000
    N3987    N        0.49003    0.74671    0.21536    1.000
    N3988    N        0.52980    0.74191    0.15867    1.000
    Si3989   Si       0.52069    0.72252    0.19670    1.000
    N3990    N        0.61024    0.77464    0.22997    1.000
    Si3991   Si       0.55116    0.71709    0.13041    1.000
    Si3992   Si       0.70059    0.75046    0.21155    1.000
    N3993    N        0.67074    0.74648    0.24247    1.000
    Si3994   Si       0.64576    0.73670    0.15715    1.000
    Si3995   Si       0.62847    0.73632    0.23180    1.000
    Si3996   Si       0.70922    0.77124    0.14108    1.000
    N3997    N        0.68614    0.74721    0.17103    1.000
    N3998    N        0.72904    0.71676    0.20630    1.000
    N3999    N        0.56080    0.74735    0.27525    1.000
    Si4000   Si       0.53050    0.75067    0.30583    1.000
    Si4001   Si       0.59155    0.76349    0.36252    1.000
    N4002    N        0.55387    0.76053    0.34251    1.000
    N4003    N        0.60578    0.72318    0.37267    1.000
    Si4004   Si       0.73446    0.71890    0.30230    1.000
    Si4005   Si       0.67060    0.75445    0.28498    1.000
    N4006    N        0.71134    0.75617    0.29670    1.000
    Si4007   Si       0.64448    0.72722    0.34593    1.000
    N4008    N        0.65334    0.71895    0.30377    1.000
    N4009    N        0.62803    0.77018    0.33907    1.000
    N4010    N        0.67971    0.73637    0.36996    1.000
    N4011    N        0.53820    0.75061    0.40572    1.000
    Si4012   Si       0.56376    0.72672    0.43250    1.000
    Si4013   Si       0.51848    0.75009    0.48413    1.000
    N4014    N        0.60327    0.73175    0.44893    1.000
    N4015    N        0.53787    0.71714    0.46614    1.000
    N4016    N        0.70733    0.75223    0.43159    1.000
    N4017    N        0.65591    0.75825    0.48434    1.000
    Si4018   Si       0.63735    0.71949    0.47233    1.000
    Si4019   Si       0.68538    0.76990    0.39660    1.000
    N4020    N        0.56821    0.74319    0.54182    1.000
    N4021    N        0.52418    0.73444    0.59454    1.000
    N4022    N        0.50208    0.73801    0.52141    1.000
    Si4023   Si       0.53154    0.72411    0.55339    1.000
    Si4024   Si       0.49493    0.76244    0.61345    1.000
    Si4025   Si       0.60374    0.71746    0.54010    1.000
    N4026    N        0.58982    0.76932    0.60599    1.000
    N4027    N        0.70990    0.75405    0.52314    1.000
    N4028    N        0.63964    0.73927    0.55189    1.000
    Si4029   Si       0.72903    0.72878    0.55049    1.000
    N4030    N        0.69946    0.73655    0.58492    1.000
    Si4031   Si       0.66756    0.76254    0.52559    1.000
    Si4032   Si       0.66002    0.71766    0.58447    1.000
    Si4033   Si       0.55599    0.74603    0.62205    1.000
    N4034    N        0.58870    0.72338    0.72203    1.000
    N4035    N        0.50228    0.76115    0.71121    1.000
    Si4036   Si       0.50557    0.72004    0.73040    1.000
    N4037    N        0.56991    0.71581    0.64904    1.000
    Si4038   Si       0.63069    0.76701    0.62786    1.000
    N4039    N        0.64441    0.72318    0.62389    1.000
    Si4040   Si       0.61823    0.74779    0.70222    1.000
    N4041    N        0.70285    0.76277    0.70738    1.000
    Si4042   Si       0.72614    0.74683    0.67214    1.000
    N4043    N        0.64986    0.71993    0.69330    1.000
    Si4044   Si       0.68547    0.72590    0.72132    1.000
    N4045    N        0.59955    0.74611    0.78499    1.000
    N4046    N        0.59588    0.74227    0.86074    1.000
    Si4047   Si       0.60210    0.72479    0.82350    1.000
    N4048    N        0.53377    0.72506    0.76305    1.000
    Si4049   Si       0.56920    0.74764    0.75208    1.000
    N4050    N        0.66915    0.73141    0.76096    1.000
    N4051    N        0.67906    0.74910    0.86180    1.000
    N4052    N        0.72412    0.76486    0.80842    1.000
    Si4053   Si       0.63988    0.76015    0.77255    1.000
    N4054    N        0.51967    0.76036    0.97355    1.000
    Si4055   Si       0.51969    0.74597    0.88402    1.000
    N4056    N        0.60996    0.73133    0.93025    1.000
    Si4057   Si       0.49484    0.73125    0.95437    1.000
    N4058    N        0.55125    0.77111    0.90317    1.000
    N4059    N        0.59023    0.74454    0.99443    1.000
    Si4060   Si       0.60563    0.71276    0.96940    1.000
    Si4061   Si       0.60027    0.71379    0.89265    1.000
    N4062    N        0.67543    0.74907    0.93184    1.000
    N4063    N        0.72719    0.71540    0.89414    1.000
    Si4064   Si       0.63582    0.76779    0.93110    1.000
    N4065    N        0.69364    0.74971    0.99372    1.000
    Si4066   Si       0.70332    0.75303    0.89870    1.000
    Si4067   Si       0.67907    0.72022    0.96506    1.000
    Si4068   Si       0.57673    0.79974    0.06067    1.000
    N4069    N        0.60344    0.80958    0.02781    1.000
    N4070    N        0.51315    0.82082    0.00875    1.000
    Si4071   Si       0.51444    0.82383    0.09211    1.000
    N4072    N        0.51004    0.78261    0.10490    1.000
    N4073    N        0.61021    0.80065    0.09066    1.000
    Si4074   Si       0.49956    0.77998    0.00665    1.000
    Si4075   Si       0.70631    0.79728    0.06748    1.000
    Si4076   Si       0.63653    0.81666    0.05790    1.000
    N4077    N        0.67363    0.80069    0.03948    1.000
    Si4078   Si       0.59493    0.78181    0.12833    1.000
    N4079    N        0.55930    0.80186    0.14371    1.000
    Si4080   Si       0.51957    0.78200    0.14656    1.000
    N4081    N        0.55042    0.80861    0.23686    1.000
    N4082    N        0.59681    0.83403    0.19188    1.000
    Si4083   Si       0.69147    0.83290    0.18251    1.000
    N4084    N        0.73138    0.78252    0.21245    1.000
    N4085    N        0.70871    0.81271    0.14976    1.000
    N4086    N        0.66468    0.81190    0.20972    1.000
    N4087    N        0.62458    0.77714    0.15893    1.000
    Si4088   Si       0.62334    0.79899    0.19575    1.000
    N4089    N        0.59063    0.81136    0.29124    1.000
    Si4090   Si       0.51291    0.81218    0.25907    1.000
    Si4091   Si       0.57896    0.78430    0.25829    1.000
    N4092    N        0.50747    0.78223    0.29082    1.000
    N4093    N        0.49390    0.78186    0.35515    1.000
    Si4094   Si       0.62825    0.80741    0.31465    1.000
    N4095    N        0.65872    0.79913    0.28404    1.000
    Si4096   Si       0.72619    0.79635    0.29638    1.000
    Si4097   Si       0.67074    0.82586    0.25083    1.000
    N4098    N        0.72355    0.82568    0.32615    1.000
    N4099    N        0.71281    0.82599    0.26462    1.000
    Si4100   Si       0.72558    0.83089    0.36943    1.000
    Si4101   Si       0.53354    0.78276    0.37431    1.000
    N4102    N        0.58319    0.80484    0.38123    1.000
    Si4103   Si       0.50770    0.80799    0.47359    1.000
    N4104    N        0.59445    0.81975    0.44699    1.000
    N4105    N        0.52450    0.82310    0.39191    1.000
    Si4106   Si       0.56931    0.82572    0.48334    1.000
    N4107    N        0.54047    0.78683    0.49487    1.000
    Si4108   Si       0.56236    0.83064    0.41697    1.000
    Si4109   Si       0.63690    0.82441    0.43813    1.000
    Si4110   Si       0.68195    0.78032    0.45785    1.000
    N4111    N        0.65790    0.79202    0.42038    1.000
    N4112    N        0.71547    0.80552    0.47186    1.000
    N4113    N        0.65615    0.82904    0.47577    1.000
    N4114    N        0.72201    0.79142    0.38737    1.000
    Si4115   Si       0.57297    0.81004    0.60408    1.000
    N4116    N        0.59609    0.80213    0.51407    1.000
    N4117    N        0.54458    0.80684    0.56839    1.000
    Si4118   Si       0.56054    0.78552    0.53285    1.000
    Si4119   Si       0.50571    0.82734    0.57778    1.000
    N4120    N        0.60337    0.83393    0.58228    1.000
    Si4121   Si       0.63289    0.82409    0.51158    1.000
    N4122    N        0.66187    0.80365    0.53802    1.000
    N4123    N        0.71995    0.80703    0.57782    1.000
    N4124    N        0.66006    0.79519    0.61190    1.000
    Si4125   Si       0.69203    0.83066    0.55392    1.000
    Si4126   Si       0.69986    0.77770    0.60569    1.000
    Si4127   Si       0.64260    0.83478    0.60288    1.000
    N4128    N        0.50702    0.81851    0.68608    1.000
    Si4129   Si       0.51750    0.80028    0.72815    1.000
    Si4130   Si       0.53068    0.81811    0.65178    1.000
    Si4131   Si       0.57422    0.82767    0.74054    1.000
    N4132    N        0.53201    0.77884    0.63722    1.000
    N4133    N        0.57270    0.83057    0.64338    1.000
    N4134    N        0.55805    0.78713    0.74214    1.000
    Si4135   Si       0.73932    0.81807    0.65521    1.000
    Si4136   Si       0.70552    0.80431    0.72235    1.000
    N4137    N        0.67037    0.82879    0.71505    1.000
    N4138    N        0.62779    0.77675    0.73345    1.000
    N4139    N        0.62444    0.77843    0.66998    1.000
    Si4140   Si       0.63439    0.80792    0.70353    1.000
    N4141    N        0.72599    0.77784    0.64346    1.000
    Si4142   Si       0.53040    0.81124    0.84787    1.000
    N4143    N        0.57329    0.80571    0.84332    1.000
    N4144    N        0.50863    0.77372    0.85220    1.000
    N4145    N        0.51598    0.83467    0.81497    1.000
    N4146    N        0.69237    0.81892    0.83823    1.000
    N4147    N        0.71600    0.82308    0.76289    1.000
    N4148    N        0.65383    0.78752    0.80248    1.000
    Si4149   Si       0.65555    0.82957    0.81459    1.000
    Si4150   Si       0.68871    0.77659    0.82954    1.000
    Si4151   Si       0.58548    0.78055    0.87648    1.000
    N4152    N        0.51457    0.82013    0.94184    1.000
    N4153    N        0.57735    0.80652    0.95888    1.000
    Si4154   Si       0.54148    0.78542    0.94257    1.000
    Si4155   Si       0.60288    0.78695    0.99042    1.000
    N4156    N        0.72515    0.79140    0.89202    1.000
    N4157    N        0.64060    0.79112    0.96969    1.000
    N4158    N        0.69812    0.82526    0.97564    1.000
    N4159    N        0.62096    0.79433    0.89995    1.000
    Si4160   Si       0.70376    0.82856    0.88008    1.000
    Si4161   Si       0.67833    0.79207    0.99607    1.000
    Si4162   Si       0.55485    0.87688    0.06173    1.000
    N4163    N        0.51991    0.88056    0.03492    1.000
    Si4164   Si       0.49119    0.85029    0.03127    1.000
    N4165    N        0.58946    0.89077    0.04048    1.000
    N4166    N        0.55104    0.83405    0.06904    1.000
    Si4167   Si       0.69143    0.86625    0.06168    1.000
    N4168    N        0.64813    0.85808    0.05945    1.000
    N4169    N        0.71918    0.86014    0.02860    1.000
    N4170    N        0.70452    0.83587    0.08836    1.000
    N4171    N        0.51881    0.85261    0.12485    1.000
    Si4172   Si       0.50298    0.88664    0.18929    1.000
    Si4173   Si       0.56666    0.84472    0.21952    1.000
    N4174    N        0.53884    0.85992    0.18773    1.000
    Si4175   Si       0.55533    0.84605    0.14896    1.000
    N4176    N        0.58859    0.87283    0.13962    1.000
    Si4177   Si       0.72764    0.84224    0.12336    1.000
    Si4178   Si       0.61760    0.86792    0.17287    1.000
    N4179    N        0.72546    0.85232    0.20286    1.000
    N4180    N        0.66004    0.86220    0.16509    1.000
    N4181    N        0.71812    0.88164    0.13602    1.000
    Si4182   Si       0.61768    0.88971    0.24424    1.000
    N4183    N        0.56266    0.86239    0.32850    1.000
    N4184    N        0.52268    0.85048    0.27999    1.000
    Si4185   Si       0.56702    0.84713    0.28800    1.000
    Si4186   Si       0.58744    0.84250    0.35999    1.000
    N4187    N        0.58363    0.86625    0.25352    1.000
    Si4188   Si       0.52750    0.88677    0.33385    1.000
    Si4189   Si       0.50150    0.88632    0.26733    1.000
    N4190    N        0.49426    0.86494    0.34791    1.000
    N4191    N        0.62858    0.84359    0.34050    1.000
    Si4192   Si       0.66259    0.87187    0.34709    1.000
    Si4193   Si       0.71923    0.85925    0.29455    1.000
    N4194    N        0.68396    0.88312    0.30979    1.000
    N4195    N        0.65609    0.86697    0.25009    1.000
    Si4196   Si       0.50985    0.87433    0.44942    1.000
    N4197    N        0.58324    0.86784    0.39582    1.000
    N4198    N        0.53537    0.83871    0.45522    1.000
    N4199    N        0.50433    0.88944    0.49115    1.000
    N4200    N        0.64402    0.86416    0.41895    1.000
    N4201    N        0.70501    0.87290    0.45428    1.000
    Si4202   Si       0.69545    0.84359    0.48450    1.000
    Si4203   Si       0.68529    0.87969    0.41539    1.000
    N4204    N        0.69409    0.85965    0.37844    1.000
    Si4205   Si       0.51368    0.85775    0.51843    1.000
    Si4206   Si       0.58768    0.85691    0.54799    1.000
    N4207    N        0.55754    0.85243    0.51752    1.000
    N4208    N        0.49953    0.86529    0.55772    1.000
    N4209    N        0.62502    0.86417    0.52431    1.000
    N4210    N        0.67325    0.85674    0.58295    1.000
    N4211    N        0.70994    0.85449    0.52407    1.000
    Si4212   Si       0.74096    0.88411    0.53642    1.000
    N4213    N        0.51331    0.84148    0.61700    1.000
    Si4214   Si       0.51406    0.88355    0.62567    1.000
    Si4215   Si       0.50556    0.85924    0.70336    1.000
    Si4216   Si       0.60190    0.85334    0.66636    1.000
    N4217    N        0.53555    0.84677    0.73193    1.000
    N4218    N        0.51985    0.88238    0.66960    1.000
    N4219    N        0.60048    0.83504    0.70615    1.000
    N4220    N        0.71104    0.88449    0.74079    1.000
    Si4221   Si       0.67195    0.87311    0.72063    1.000
    N4222    N        0.63960    0.85241    0.64301    1.000
    Si4223   Si       0.67873    0.87556    0.64347    1.000
    N4224    N        0.71965    0.85803    0.64083    1.000
    N4225    N        0.56360    0.88247    0.83841    1.000
    Si4226   Si       0.54830    0.87864    0.76113    1.000
    N4227    N        0.57865    0.85011    0.77887    1.000
    Si4228   Si       0.58464    0.84502    0.82265    1.000
    Si4229   Si       0.51922    0.87615    0.82302    1.000
    N4230    N        0.66647    0.86359    0.79153    1.000
    Si4231   Si       0.70695    0.86062    0.77955    1.000
    N4232    N        0.62564    0.84178    0.84432    1.000
    N4233    N        0.73497    0.87249    0.81133    1.000
    Si4234   Si       0.49483    0.83414    0.90599    1.000
    N4235    N        0.52727    0.84176    0.87998    1.000
    N4236    N        0.49981    0.87679    0.97087    1.000
    Si4237   Si       0.52919    0.84525    0.97670    1.000
    Si4238   Si       0.55579    0.87395    0.88351    1.000
    N4239    N        0.56682    0.86645    0.97749    1.000
    N4240    N        0.59054    0.85474    0.90390    1.000
    Si4241   Si       0.59262    0.84538    0.94666    1.000
    N4242    N        0.73243    0.86172    0.88074    1.000
    Si4243   Si       0.62826    0.83599    0.88784    1.000
    N4244    N        0.63210    0.86029    0.95530    1.000
    Si4245   Si       0.72248    0.86164    0.98481    1.000
    N4246    N        0.67002    0.84110    0.90238    1.000
    Si4247   Si       0.67099    0.84545    0.94772    1.000
    N4248    N        0.69111    0.88483    0.95288    1.000
    N4249    N        0.54909    0.90286    0.09493    1.000
    Si4250   Si       0.50850    0.90702    0.00289    1.000
    Si4251   Si       0.51143    0.89441    0.11777    1.000
    Si4252   Si       0.57963    0.90203    0.99883    1.000
    N4253    N        0.54534    0.92883    0.99666    1.000
    N4254    N        0.62185    0.91792    0.09858    1.000
    Si4255   Si       0.73278    0.91081    0.10533    1.000
    Si4256   Si       0.68380    0.94373    0.05623    1.000
    N4257    N        0.64955    0.92399    0.03664    1.000
    N4258    N        0.70172    0.90759    0.07489    1.000
    Si4259   Si       0.62747    0.89640    0.06019    1.000
    Si4260   Si       0.62692    0.94954    0.00878    1.000
    Si4261   Si       0.58368    0.91150    0.11858    1.000
    N4262    N        0.50997    0.90504    0.22813    1.000
    N4263    N        0.59070    0.94365    0.14811    1.000
    N4264    N        0.50919    0.91317    0.15807    1.000
    Si4265   Si       0.49626    0.95303    0.15697    1.000
    Si4266   Si       0.73279    0.89350    0.21377    1.000
    N4267    N        0.65823    0.93262    0.15124    1.000
    Si4268   Si       0.62190    0.93818    0.17888    1.000
    Si4269   Si       0.68410    0.89727    0.15706    1.000
    N4270    N        0.70081    0.91578    0.19479    1.000
    N4271    N        0.61424    0.90167    0.20130    1.000
    N4272    N        0.51871    0.91354    0.29675    1.000
    N4273    N        0.53889    0.91571    0.36506    1.000
    Si4274   Si       0.50755    0.94542    0.36911    1.000
    Si4275   Si       0.53260    0.95316    0.29660    1.000
    N4276    N        0.63031    0.91771    0.27501    1.000
    Si4277   Si       0.67252    0.90175    0.27186    1.000
    Si4278   Si       0.73146    0.93632    0.26928    1.000
    N4279    N        0.64342    0.90639    0.36485    1.000
    N4280    N        0.71937    0.89498    0.25712    1.000
    N4281    N        0.69038    0.94403    0.28113    1.000
    Si4282   Si       0.56154    0.90630    0.40188    1.000
    N4283    N        0.59917    0.92472    0.41951    1.000
    N4284    N        0.53226    0.90803    0.43279    1.000
    Si4285   Si       0.60296    0.94640    0.45785    1.000
    Si4286   Si       0.52151    0.94965    0.44485    1.000
    N4287    N        0.68335    0.92242    0.41326    1.000
    N4288    N        0.70127    0.94469    0.48431    1.000
    Si4289   Si       0.70789    0.94431    0.44074    1.000
    Si4290   Si       0.66878    0.94081    0.37726    1.000
    N4291    N        0.62579    0.92783    0.49170    1.000
    Si4292   Si       0.62146    0.89410    0.40033    1.000
    Si4293   Si       0.55876    0.92346    0.58110    1.000
    N4294    N        0.51881    0.93494    0.56134    1.000
    N4295    N        0.58572    0.90044    0.55692    1.000
    N4296    N        0.54912    0.90892    0.62058    1.000
    Si4297   Si       0.61999    0.90777    0.52851    1.000
    N4298    N        0.65797    0.92434    0.54468    1.000
    N4299    N        0.72212    0.90975    0.56754    1.000
    Si4300   Si       0.66350    0.94489    0.50648    1.000
    Si4301   Si       0.67916    0.90084    0.57604    1.000
    N4302    N        0.67015    0.91152    0.61797    1.000
    Si4303   Si       0.73951    0.95023    0.50079    1.000
    Si4304   Si       0.55141    0.91148    0.66541    1.000
    Si4305   Si       0.60300    0.90945    0.71553    1.000
    N4306    N        0.56694    0.91167    0.74203    1.000
    N4307    N        0.58939    0.89324    0.67657    1.000
    N4308    N        0.61589    0.94729    0.70295    1.000
    N4309    N        0.63670    0.89203    0.73845    1.000
    N4310    N        0.72442    0.94021    0.65113    1.000
    N4311    N        0.68122    0.89432    0.68391    1.000
    Si4312   Si       0.71747    0.91769    0.68706    1.000
    N4313    N        0.71182    0.94848    0.71590    1.000
    Si4314   Si       0.58777    0.91852    0.83302    1.000
    N4315    N        0.56677    0.94348    0.80415    1.000
    N4316    N        0.51406    0.89324    0.78316    1.000
    N4317    N        0.62895    0.91852    0.81630    1.000
    N4318    N        0.68015    0.93212    0.78186    1.000
    Si4319   Si       0.71430    0.92655    0.75387    1.000
    N4320    N        0.69270    0.92166    0.85277    1.000
    Si4321   Si       0.64904    0.90115    0.78010    1.000
    Si4322   Si       0.66860    0.94563    0.82389    1.000
    Si4323   Si       0.72305    0.89147    0.84877    1.000
    N4324    N        0.58224    0.93719    0.87169    1.000
    N4325    N        0.49434    0.93861    0.94739    1.000
    Si4326   Si       0.50556    0.90021    0.93370    1.000
    N4327    N        0.53755    0.90628    0.90725    1.000
    Si4328   Si       0.54221    0.94770    0.88901    1.000
    N4329    N        0.61531    0.91931    0.97928    1.000
    N4330    N        0.67662    0.94370    0.96698    1.000
    N4331    N        0.64761    0.92149    0.91267    1.000
    Si4332   Si       0.71448    0.92463    0.95446    1.000
    Si4333   Si       0.68127    0.94465    0.89283    1.000
    Si4334   Si       0.61766    0.95017    0.89242    1.000
    Si4335   Si       0.64928    0.90716    0.95390    1.000
    N4336    N        0.72129    0.93267    0.91238    1.000
    Si4337   Si       0.52835    0.98055    0.08689    1.000
    N4338    N        0.51821    0.96853    0.04694    1.000
    N4339    N        0.59095    0.96720    0.02382    1.000
    Si4340   Si       0.54546    0.96909    0.01287    1.000
    N4341    N        0.57318    0.97918    0.09121    1.000
    Si4342   Si       0.59010    0.99706    0.05439    1.000
    N4343    N        0.50474    0.95642    0.11304    1.000
    N4344    N        0.67156    0.96954    0.08916    1.000
    N4345    N        0.65310    0.98478    0.01042    1.000
    N4346    N        0.71102    0.95842    0.02772    1.000
    Si4347   Si       0.64150    0.95389    0.11561    1.000
    N4348    N        0.51292    0.97252    0.19162    1.000
    Si4349   Si       0.58282    0.98239    0.13216    1.000
    N4350    N        0.56156    0.01289    0.15514    1.000
    Si4351   Si       0.50614    0.95016    0.22914    1.000
    N4352    N        0.70883    0.98679    0.17722    1.000
    N4353    N        0.62721    0.99186    0.13391    1.000
    Si4354   Si       0.63524    0.99855    0.22570    1.000
    Si4355   Si       0.73369    0.98883    0.14230    1.000
    N4356    N        0.64666    0.96290    0.20455    1.000
    Si4357   Si       0.68175    0.95207    0.18328    1.000
    N4358    N        0.52048    0.97327    0.33384    1.000
    N4359    N        0.53112    0.97128    0.25651    1.000
    Si4360   Si       0.56485    0.99971    0.25111    1.000
    N4361    N        0.60457    0.97930    0.25125    1.000
    Si4362   Si       0.55822    0.00190    0.32580    1.000
    N4363    N        0.57616    0.95937    0.30583    1.000
    Si4364   Si       0.61528    0.95664    0.28629    1.000
    N4365    N        0.63983    0.97567    0.31689    1.000
    Si4366   Si       0.68125    0.96996    0.31464    1.000
    Si4367   Si       0.62997    0.99920    0.35318    1.000
    N4368    N        0.70154    0.95292    0.35163    1.000
    Si4369   Si       0.48756    0.00581    0.40632    1.000
    N4370    N        0.50827    0.96787    0.40680    1.000
    N4371    N        0.55905    0.95877    0.46583    1.000
    N4372    N        0.64768    0.97743    0.38669    1.000
    Si4373   Si       0.62930    0.00521    0.49575    1.000
    Si4374   Si       0.65386    0.99447    0.42660    1.000
    N4375    N        0.69854    0.98562    0.43104    1.000
    N4376    N        0.62766    0.98263    0.45781    1.000
    Si4377   Si       0.53019    0.97649    0.56248    1.000
    N4378    N        0.57006    0.96687    0.57830    1.000
    N4379    N        0.59546    0.99370    0.52048    1.000
    Si4380   Si       0.59795    0.99754    0.56545    1.000
    N4381    N        0.52944    0.99830    0.52488    1.000
    N4382    N        0.51567    0.00455    0.59144    1.000
    Si4383   Si       0.56016    0.99020    0.49560    1.000
    N4384    N        0.66071    0.98621    0.52084    1.000
    N4385    N        0.69343    0.96934    0.58942    1.000
    Si4386   Si       0.67339    0.99589    0.56089    1.000
    Si4387   Si       0.73264    0.95178    0.57341    1.000
    N4388    N        0.73761    0.97334    0.53659    1.000
    N4389    N        0.57152    0.98530    0.73733    1.000
    N4390    N        0.59963    0.99921    0.67480    1.000
    Si4391   Si       0.49856    0.96595    0.68168    1.000
    Si4392   Si       0.57699    0.97115    0.69640    1.000
    N4393    N        0.49183    0.99702    0.65224    1.000
    N4394    N        0.53929    0.95043    0.68277    1.000
    Si4395   Si       0.69775    0.98335    0.69618    1.000
    N4396    N        0.67250    0.97575    0.65944    1.000
    Si4397   Si       0.63651    0.97986    0.68433    1.000
    N4398    N        0.66098    0.99829    0.71518    1.000
    Si4399   Si       0.68742    0.95106    0.62813    1.000
    Si4400   Si       0.53350    0.96702    0.81656    1.000
    N4401    N        0.51912    0.96670    0.77578    1.000
    Si4402   Si       0.55764    0.95154    0.76118    1.000
    N4403    N        0.51694    0.95473    0.85417    1.000
    Si4404   Si       0.65094    0.00211    0.84696    1.000
    N4405    N        0.68061    0.99048    0.81938    1.000
    N4406    N        0.64877    0.96284    0.86506    1.000
    N4407    N        0.52488    0.99650    0.98430    1.000
    N4408    N        0.53948    0.97998    0.91826    1.000
    Si4409   Si       0.50660    0.98189    0.94822    1.000
    N4410    N        0.60727    0.98136    0.92023    1.000
    Si4411   Si       0.57405    0.00870    0.92154    1.000
    Si4412   Si       0.69224    0.97747    0.99162    1.000
    N4413    N        0.69513    0.98916    0.91025    1.000
    Si4414   Si       0.73713    0.97860    0.92134    1.000
    N4415    N        0.73744    0.96421    0.96932    1.000
    Si4416   Si       0.79021    0.04976    0.01740    1.000
    N4417    N        0.79249    0.04605    0.10574    1.000
    N4418    N        0.75370    0.02534    0.01271    1.000
    N4419    N        0.81860    0.02713    0.04477    1.000
    N4420    N        0.85505    0.02099    0.10243    1.000
    Si4421   Si       0.85558    0.01173    0.02941    1.000
    Si4422   Si       0.81561    0.01129    0.08688    1.000
    Si4423   Si       0.87160    0.05342    0.08118    1.000
    N4424    N        0.88580    0.03828    0.04373    1.000
    Si4425   Si       0.91622    0.05499    0.01793    1.000
    Si4426   Si       0.78662    0.03882    0.14928    1.000
    N4427    N        0.82285    0.04519    0.17298    1.000
    N4428    N        0.74559    0.03037    0.21791    1.000
    N4429    N        0.86085    0.02759    0.22376    1.000
    Si4430   Si       0.87848    0.00980    0.13520    1.000
    N4431    N        0.89743    0.03965    0.16086    1.000
    N4432    N        0.92981    0.05150    0.22317    1.000
    Si4433   Si       0.96311    0.02643    0.21505    1.000
    Si4434   Si       0.92194    0.06643    0.13847    1.000
    N4435    N        0.95862    0.04052    0.13607    1.000
    Si4436   Si       0.89136    0.05015    0.20446    1.000
    Si4437   Si       0.79228    0.04407    0.30450    1.000
    N4438    N        0.74990    0.04979    0.30958    1.000
    N4439    N        0.80113    0.02706    0.26658    1.000
    Si4440   Si       0.84662    0.03392    0.26556    1.000
    N4441    N        0.82492    0.02515    0.32688    1.000
    Si4442   Si       0.82397    0.05647    0.35776    1.000
    Si4443   Si       0.90388    0.02951    0.31629    1.000
    N4444    N        0.94161    0.03007    0.29553    1.000
    Si4445   Si       0.97871    0.04790    0.28249    1.000
    N4446    N        0.98519    0.01540    0.25054    1.000
    N4447    N        0.79520    0.03736    0.38217    1.000
    N4448    N        0.80765    0.02364    0.44904    1.000
    Si4449   Si       0.78549    0.05057    0.42258    1.000
    Si4450   Si       0.85122    0.01907    0.44856    1.000
    Si4451   Si       0.77839    0.01490    0.48079    1.000
    N4452    N        0.74115    0.04834    0.43019    1.000
    N4453    N        0.86289    0.05938    0.45681    1.000
    Si4454   Si       0.94545    0.05181    0.47268    1.000
    N4455    N        0.92220    0.01682    0.45987    1.000
    N4456    N        0.92359    0.04944    0.38890    1.000
    N4457    N        0.97789    0.04905    0.44343    1.000
    Si4458   Si       0.96117    0.03210    0.40606    1.000
    Si4459   Si       0.90440    0.00870    0.39045    1.000
    Si4460   Si       0.87913    0.05898    0.49817    1.000
    N4461    N        0.83668    0.05085    0.57650    1.000
    Si4462   Si       0.80538    0.04402    0.54799    1.000
    N4463    N        0.76934    0.02662    0.56682    1.000
    Si4464   Si       0.81601    0.05833    0.61292    1.000
    N4465    N        0.80758    0.01453    0.51484    1.000
    N4466    N        0.74861    0.04184    0.49990    1.000
    N4467    N        0.89659    0.06022    0.61145    1.000
    N4468    N        0.89621    0.04044    0.53813    1.000
    N4469    N        0.96445    0.04682    0.51067    1.000
    Si4470   Si       0.87862    0.03847    0.57795    1.000
    N4471    N        0.95712    0.04340    0.57947    1.000
    Si4472   Si       0.93667    0.05820    0.54248    1.000
    N4473    N        0.80579    0.01791    0.62664    1.000
    Si4474   Si       0.83464    0.02544    0.65927    1.000
    N4475    N        0.81182    0.02191    0.69511    1.000
    Si4476   Si       0.79187    0.05645    0.70964    1.000
    N4477    N        0.76965    0.06813    0.67265    1.000
    N4478    N        0.84163    0.06627    0.64688    1.000
    N4479    N        0.75687    0.06379    0.73789    1.000
    Si4480   Si       0.98342    0.02585    0.65157    1.000
    Si4481   Si       0.90747    0.01532    0.63777    1.000
    N4482    N        0.86717    0.02603    0.74479    1.000
    N4483    N        0.87603    0.01088    0.66769    1.000
    N4484    N        0.94304    0.04234    0.64839    1.000
    Si4485   Si       0.77348    0.02931    0.83860    1.000
    N4486    N        0.85181    0.05723    0.80511    1.000
    N4487    N        0.81194    0.01708    0.85409    1.000
    Si4488   Si       0.85436    0.06274    0.76184    1.000
    N4489    N        0.75041    0.00619    0.80866    1.000
    Si4490   Si       0.87917    0.02732    0.82169    1.000
    N4491    N        0.91833    0.04336    0.81153    1.000
    N4492    N        0.88287    0.02432    0.86642    1.000
    Si4493   Si       0.94665    0.00947    0.80812    1.000
    N4494    N        0.96768    0.01222    0.76960    1.000
    N4495    N        0.74861    0.03297    0.87430    1.000
    N4496    N        0.75321    0.01605    0.93860    1.000
    N4497    N        0.80451    0.05445    0.97691    1.000
    Si4498   Si       0.82684    0.01765    0.96158    1.000
    Si4499   Si       0.74786    0.04916    0.91341    1.000
    Si4500   Si       0.84168    0.03254    0.88136    1.000
    N4501    N        0.86363    0.00942    0.98582    1.000
    N4502    N        0.83035    0.01056    0.91846    1.000
    Si4503   Si       0.91165    0.04281    0.89158    1.000
    N4504    N        0.90657    0.03524    0.93323    1.000
    N4505    N        0.95278    0.03998    0.88354    1.000
    Si4506   Si       0.90225    0.00714    0.96577    1.000
    N4507    N        0.93268    0.01614    0.99713    1.000
    N4508    N        0.84194    0.08587    0.07385    1.000
    N4509    N        0.78034    0.11327    0.09942    1.000
    N4510    N        0.78261    0.08623    0.03872    1.000
    N4511    N        0.84180    0.11437    0.01362    1.000
    Si4512   Si       0.80078    0.08003    0.07883    1.000
    Si4513   Si       0.79814    0.12010    0.01118    1.000
    Si4514   Si       0.85611    0.12420    0.05577    1.000
    Si4515   Si       0.92740    0.10212    0.07818    1.000
    Si4516   Si       0.97826    0.10487    0.02696    1.000
    N4517    N        0.94569    0.08213    0.04398    1.000
    N4518    N        0.95892    0.11967    0.10389    1.000
    N4519    N        0.90306    0.07416    0.10150    1.000
    Si4520   Si       0.75248    0.10237    0.13416    1.000
    N4521    N        0.81661    0.10533    0.21483    1.000
    Si4522   Si       0.83251    0.08586    0.17941    1.000
    N4523    N        0.82977    0.11084    0.14568    1.000
    Si4524   Si       0.85347    0.10276    0.23796    1.000
    Si4525   Si       0.75143    0.07276    0.21188    1.000
    N4526    N        0.76426    0.07315    0.16608    1.000
    Si4527   Si       0.78733    0.12366    0.24265    1.000
    N4528    N        0.93141    0.10484    0.15931    1.000
    N4529    N        0.87499    0.09253    0.20056    1.000
    Si4530   Si       0.96789    0.12282    0.14694    1.000
    N4531    N        0.80338    0.08408    0.32660    1.000
    Si4532   Si       0.76553    0.10541    0.34030    1.000
    N4533    N        0.85730    0.07583    0.27189    1.000
    Si4534   Si       0.81694    0.12262    0.31369    1.000
    N4535    N        0.76158    0.08832    0.25235    1.000
    Si4536   Si       0.88242    0.10044    0.29960    1.000
    N4537    N        0.96294    0.09066    0.33842    1.000
    Si4538   Si       0.96061    0.11632    0.30098    1.000
    N4539    N        0.98268    0.09078    0.27274    1.000
    N4540    N        0.91919    0.11722    0.28268    1.000
    Si4541   Si       0.89506    0.08024    0.37032    1.000
    N4542    N        0.89093    0.06910    0.32905    1.000
    Si4543   Si       0.95296    0.12639    0.36402    1.000
    N4544    N        0.85431    0.07257    0.38522    1.000
    Si4545   Si       0.78279    0.12259    0.45029    1.000
    N4546    N        0.75579    0.09681    0.38068    1.000
    N4547    N        0.80487    0.08879    0.43268    1.000
    Si4548   Si       0.84957    0.08756    0.42787    1.000
    N4549    N        0.74159    0.10681    0.45133    1.000
    N4550    N        0.91356    0.11921    0.37968    1.000
    N4551    N        0.91614    0.08184    0.48801    1.000
    Si4552   Si       0.92080    0.12389    0.48637    1.000
    N4553    N        0.93517    0.12823    0.44546    1.000
    N4554    N        0.79163    0.08474    0.54236    1.000
    Si4555   Si       0.81869    0.11427    0.52373    1.000
    Si4556   Si       0.76802    0.10256    0.57363    1.000
    N4557    N        0.78643    0.08899    0.61073    1.000
    N4558    N        0.85263    0.08912    0.51405    1.000
    N4559    N        0.92989    0.09612    0.56462    1.000
    Si4560   Si       0.93829    0.07456    0.60427    1.000
    Si4561   Si       0.77888    0.10399    0.65092    1.000
    N4562    N        0.82258    0.07617    0.73187    1.000
    Si4563   Si       0.81614    0.11676    0.72021    1.000
    N4564    N        0.80957    0.12482    0.67690    1.000
    Si4565   Si       0.94243    0.08060    0.67118    1.000
    Si4566   Si       0.95421    0.10825    0.73847    1.000
    Si4567   Si       0.88028    0.08769    0.64348    1.000
    Si4568   Si       0.89094    0.10795    0.71872    1.000
    N4569    N        0.96691    0.08025    0.70728    1.000
    N4570    N        0.89988    0.08668    0.68196    1.000
    N4571    N        0.95360    0.10499    0.63614    1.000
    Si4572   Si       0.82476    0.07988    0.83030    1.000
    N4573    N        0.83284    0.12108    0.81498    1.000
    Si4574   Si       0.74282    0.08727    0.82115    1.000
    N4575    N        0.74199    0.11523    0.85443    1.000
    Si4576   Si       0.74695    0.10488    0.74650    1.000
    N4577    N        0.78152    0.06895    0.82431    1.000
    N4578    N        0.95228    0.09415    0.77886    1.000
    N4579    N        0.90609    0.10992    0.83271    1.000
    Si4580   Si       0.91465    0.08356    0.79561    1.000
    N4581    N        0.89347    0.08543    0.75575    1.000
    Si4582   Si       0.92396    0.11780    0.87229    1.000
    N4583    N        0.84019    0.07583    0.87245    1.000
    N4584    N        0.78375    0.12137    0.96877    1.000
    Si4585   Si       0.80304    0.08819    0.94808    1.000
    N4586    N        0.84594    0.09698    0.94237    1.000
    Si4587   Si       0.76723    0.11714    0.88930    1.000
    N4588    N        0.77673    0.08262    0.91349    1.000
    Si4589   Si       0.85886    0.10470    0.90137    1.000
    Si4590   Si       0.86643    0.10854    0.97983    1.000
    N4591    N        0.96610    0.11088    0.87808    1.000
    Si4592   Si       0.91200    0.07657    0.94231    1.000
    N4593    N        0.89805    0.07770    0.98448    1.000
    N4594    N        0.90051    0.09051    0.89963    1.000
    Si4595   Si       0.98079    0.06932    0.89206    1.000
    N4596    N        0.94508    0.10325    0.94883    1.000
    Si4597   Si       0.98871    0.10178    0.95408    1.000
    N4598    N        0.83966    0.15213    0.08659    1.000
    N4599    N        0.78749    0.15289    0.03705    1.000
    Si4600   Si       0.76038    0.13453    0.06641    1.000
    Si4601   Si       0.81190    0.13817    0.11661    1.000
    N4602    N        0.74733    0.16839    0.09090    1.000
    N4603    N        0.84864    0.18235    0.01474    1.000
    N4604    N        0.95415    0.17415    0.06609    1.000
    Si4605   Si       0.92550    0.15547    0.03567    1.000
    N4606    N        0.95289    0.13691    0.00740    1.000
    Si4607   Si       0.98630    0.14653    0.08341    1.000
    N4608    N        0.89945    0.12951    0.05779    1.000
    N4609    N        0.76914    0.15503    0.21900    1.000
    N4610    N        0.79357    0.17093    0.13738    1.000
    Si4611   Si       0.75034    0.17942    0.13261    1.000
    N4612    N        0.92506    0.14245    0.21655    1.000
    N4613    N        0.98480    0.16981    0.23675    1.000
    N4614    N        0.88794    0.15877    0.16327    1.000
    Si4615   Si       0.95518    0.17252    0.20489    1.000
    N4616    N        0.96996    0.16190    0.16573    1.000
    Si4617   Si       0.90100    0.12492    0.18447    1.000
    N4618    N        0.78739    0.14222    0.33819    1.000
    Si4619   Si       0.83761    0.17225    0.26805    1.000
    N4620    N        0.80759    0.14116    0.27560    1.000
    Si4621   Si       0.85948    0.16729    0.34179    1.000
    Si4622   Si       0.79328    0.18143    0.35540    1.000
    N4623    N        0.85910    0.12853    0.32372    1.000
    N4624    N        0.86552    0.14344    0.24677    1.000
    Si4625   Si       0.90709    0.15073    0.25548    1.000
    N4626    N        0.96237    0.15134    0.32664    1.000
    N4627    N        0.89646    0.18889    0.34846    1.000
    N4628    N        0.83273    0.17265    0.37573    1.000
    Si4629   Si       0.83182    0.16284    0.41841    1.000
    N4630    N        0.78961    0.16087    0.43133    1.000
    N4631    N        0.79244    0.12890    0.49338    1.000
    N4632    N        0.86041    0.13079    0.42544    1.000
    N4633    N        0.98309    0.13093    0.39657    1.000
    N4634    N        0.88836    0.15407    0.49076    1.000
    N4635    N        0.90487    0.18309    0.42070    1.000
    Si4636   Si       0.90361    0.13992    0.41692    1.000
    N4637    N        0.98131    0.18217    0.45264    1.000
    Si4638   Si       0.97737    0.14022    0.43903    1.000
    Si4639   Si       0.80626    0.16348    0.57303    1.000
    N4640    N        0.77144    0.14409    0.55747    1.000
    Si4641   Si       0.75798    0.14331    0.51672    1.000
    N4642    N        0.83561    0.14908    0.54391    1.000
    N4643    N        0.80345    0.15438    0.61631    1.000
    N4644    N        0.74470    0.18432    0.50120    1.000
    N4645    N        0.98115    0.14377    0.58162    1.000
    Si4646   Si       0.87385    0.16383    0.52987    1.000
    N4647    N        0.91032    0.16274    0.55504    1.000
    Si4648   Si       0.94471    0.13522    0.55445    1.000
    N4649    N        0.95507    0.12963    0.51220    1.000
    N4650    N        0.74515    0.13137    0.64757    1.000
    N4651    N        0.85568    0.13303    0.72814    1.000
    Si4652   Si       0.76613    0.16835    0.63371    1.000
    Si4653   Si       0.83326    0.14366    0.64796    1.000
    N4654    N        0.84940    0.18340    0.66120    1.000
    Si4655   Si       0.98355    0.13797    0.62491    1.000
    N4656    N        0.92438    0.13501    0.71896    1.000
    N4657    N        0.87195    0.12995    0.63353    1.000
    Si4658   Si       0.88489    0.17383    0.63705    1.000
    N4659    N        0.92425    0.17630    0.65858    1.000
    Si4660   Si       0.92132    0.17331    0.70173    1.000
    Si4661   Si       0.81737    0.15369    0.83995    1.000
    Si4662   Si       0.79413    0.17150    0.76902    1.000
    N4663    N        0.79055    0.17988    0.81656    1.000
    N4664    N        0.85907    0.16954    0.84345    1.000
    N4665    N        0.78529    0.13124    0.74593    1.000
    Si4666   Si       0.87556    0.13828    0.81930    1.000
    N4667    N        0.89274    0.15614    0.78392    1.000
    Si4668   Si       0.86964    0.16705    0.75138    1.000
    N4669    N        0.98870    0.13513    0.74741    1.000
    Si4670   Si       0.74970    0.14382    0.95229    1.000
    N4671    N        0.80146    0.13931    0.87948    1.000
    Si4672   Si       0.82194    0.17260    0.90377    1.000
    Si4673   Si       0.85765    0.18097    0.97139    1.000
    N4674    N        0.86110    0.14961    0.90334    1.000
    N4675    N        0.75430    0.18291    0.93823    1.000
    N4676    N        0.82285    0.18640    0.94523    1.000
    N4677    N        0.88948    0.14598    0.97204    1.000
    Si4678   Si       0.98565    0.18432    0.94360    1.000
    N4679    N        0.94442    0.18086    0.95558    1.000
    Si4680   Si       0.88439    0.17750    0.87976    1.000
    N4681    N        0.92398    0.16281    0.87650    1.000
    Si4682   Si       0.93120    0.14116    0.96603    1.000
    N4683    N        0.81654    0.21073    0.06525    1.000
    Si4684   Si       0.84786    0.19452    0.08990    1.000
    N4685    N        0.78586    0.21115    0.99985    1.000
    Si4686   Si       0.80825    0.19017    0.02973    1.000
    N4687    N        0.75294    0.24310    0.05842    1.000
    Si4688   Si       0.79006    0.24318    0.08045    1.000
    Si4689   Si       0.75966    0.24390    0.01566    1.000
    N4690    N        0.98075    0.23022    0.03390    1.000
    Si4691   Si       0.87876    0.20884    0.03248    1.000
    N4692    N        0.88522    0.20963    0.07504    1.000
    Si4693   Si       0.94660    0.21231    0.04946    1.000
    N4694    N        0.91787    0.19648    0.01945    1.000
    Si4695   Si       0.90509    0.24216    0.09876    1.000
    N4696    N        0.78171    0.23622    0.12160    1.000
    Si4697   Si       0.78181    0.19753    0.22204    1.000
    N4698    N        0.75390    0.23205    0.22583    1.000
    N4699    N        0.80586    0.21296    0.18714    1.000
    N4700    N        0.84969    0.20856    0.13117    1.000
    Si4701   Si       0.80791    0.21116    0.14603    1.000
    Si4702   Si       0.83362    0.23316    0.21671    1.000
    N4703    N        0.81820    0.20524    0.24637    1.000
    N4704    N        0.91362    0.22674    0.13892    1.000
    Si4705   Si       0.88151    0.20102    0.15967    1.000
    N4706    N        0.98655    0.22944    0.14747    1.000
    Si4707   Si       0.94818    0.23617    0.16417    1.000
    N4708    N        0.93848    0.21307    0.20105    1.000
    N4709    N        0.87325    0.21899    0.19844    1.000
    Si4710   Si       0.90723    0.22117    0.23045    1.000
    N4711    N        0.79422    0.21209    0.32476    1.000
    Si4712   Si       0.83397    0.23231    0.31512    1.000
    N4713    N        0.85382    0.19216    0.30483    1.000
    N4714    N        0.90358    0.19281    0.26320    1.000
    N4715    N        0.94346    0.21653    0.30831    1.000
    Si4716   Si       0.89838    0.20851    0.30545    1.000
    Si4717   Si       0.97066    0.19445    0.33398    1.000
    Si4718   Si       0.81779    0.22455    0.45915    1.000
    N4719    N        0.77968    0.23067    0.43532    1.000
    Si4720   Si       0.76192    0.19336    0.42326    1.000
    N4721    N        0.84435    0.19336    0.44941    1.000
    N4722    N        0.75784    0.19115    0.37875    1.000
    Si4723   Si       0.88697    0.18747    0.46003    1.000
    Si4724   Si       0.91722    0.20222    0.38351    1.000
    Si4725   Si       0.95683    0.21920    0.46935    1.000
    N4726    N        0.91337    0.21773    0.48018    1.000
    N4727    N        0.96510    0.23949    0.43247    1.000
    N4728    N        0.96051    0.19941    0.37631    1.000
    Si4729   Si       0.98268    0.20625    0.41264    1.000
    N4730    N        0.90957    0.24568    0.38579    1.000
    N4731    N        0.80658    0.20679    0.57001    1.000
    Si4732   Si       0.76817    0.22702    0.58299    1.000
    Si4733   Si       0.84365    0.22691    0.59784    1.000
    Si4734   Si       0.82705    0.22495    0.53703    1.000
    Si4735   Si       0.76018    0.22631    0.50711    1.000
    N4736    N        0.80231    0.22684    0.49982    1.000
    N4737    N        0.74402    0.19686    0.60829    1.000
    N4738    N        0.74803    0.24030    0.54613    1.000
    N4739    N        0.86553    0.20716    0.52726    1.000
    N4740    N        0.94511    0.21109    0.60156    1.000
    Si4741   Si       0.90987    0.20199    0.57386    1.000
    Si4742   Si       0.89669    0.23714    0.51536    1.000
    N4743    N        0.87657    0.19752    0.60199    1.000
    N4744    N        0.92101    0.23732    0.54961    1.000
    N4745    N        0.98362    0.22437    0.50271    1.000
    N4746    N        0.82106    0.22832    0.70594    1.000
    N4747    N        0.77824    0.20148    0.65849    1.000
    Si4748   Si       0.81776    0.21455    0.66601    1.000
    Si4749   Si       0.74855    0.22821    0.64144    1.000
    Si4750   Si       0.79356    0.24059    0.73694    1.000
    N4751    N        0.83790    0.24331    0.63756    1.000
    N4752    N        0.95730    0.19370    0.71624    1.000
    Si4753   Si       0.86307    0.22777    0.71605    1.000
    Si4754   Si       0.95687    0.20181    0.64376    1.000
    Si4755   Si       0.96613    0.23453    0.70916    1.000
    N4756    N        0.95619    0.23854    0.66623    1.000
    N4757    N        0.88909    0.19363    0.72264    1.000
    Si4758   Si       0.77863    0.20941    0.84838    1.000
    Si4759   Si       0.84107    0.22952    0.78273    1.000
    Si4760   Si       0.84333    0.23543    0.86613    1.000
    N4761    N        0.83440    0.18989    0.76577    1.000
    N4762    N        0.85354    0.23947    0.82415    1.000
    N4763    N        0.77112    0.20542    0.75222    1.000
    N4764    N        0.96815    0.19194    0.83189    1.000
    Si4765   Si       0.96052    0.23684    0.82834    1.000
    N4766    N        0.81311    0.20504    0.87643    1.000
    Si4767   Si       0.78552    0.20717    0.95582    1.000
    N4768    N        0.87897    0.21980    0.88864    1.000
    N4769    N        0.94560    0.23631    0.87144    1.000
    N4770    N        0.88104    0.21678    0.96811    1.000
    Si4771   Si       0.92269    0.20975    0.97688    1.000
    N4772    N        0.95112    0.24331    0.97708    1.000
    Si4773   Si       0.95572    0.19253    0.87252    1.000
    N4774    N        0.81079    0.27990    0.07317    1.000
    Si4775   Si       0.85248    0.27674    0.05576    1.000
    N4776    N        0.78420    0.27908    0.00450    1.000
    N4777    N        0.86529    0.24932    0.02439    1.000
    Si4778   Si       0.98159    0.26169    0.06464    1.000
    N4779    N        0.87919    0.27641    0.09143    1.000
    N4780    N        0.97671    0.29830    0.11997    1.000
    N4781    N        0.94210    0.24605    0.07642    1.000
    N4782    N        0.81186    0.27245    0.20865    1.000
    N4783    N        0.75303    0.28243    0.16802    1.000
    Si4784   Si       0.74412    0.25205    0.13734    1.000
    Si4785   Si       0.76997    0.26968    0.20541    1.000
    N4786    N        0.75588    0.29555    0.23858    1.000
    N4787    N        0.86288    0.26776    0.24210    1.000
    Si4788   Si       0.83947    0.30104    0.22456    1.000
    N4789    N        0.94637    0.27605    0.17853    1.000
    Si4790   Si       0.93919    0.28646    0.21975    1.000
    N4791    N        0.80977    0.26541    0.29847    1.000
    N4792    N        0.77256    0.27433    0.35164    1.000
    Si4793   Si       0.81400    0.28681    0.35601    1.000
    N4794    N        0.84180    0.25324    0.35666    1.000
    Si4795   Si       0.77263    0.24710    0.31715    1.000
    Si4796   Si       0.74172    0.29296    0.37409    1.000
    Si4797   Si       0.89015    0.27760    0.27428    1.000
    Si4798   Si       0.88625    0.26094    0.35194    1.000
    N4799    N        0.95094    0.28614    0.30948    1.000
    Si4800   Si       0.95589    0.25151    0.28590    1.000
    N4801    N        0.88310    0.25115    0.30835    1.000
    N4802    N        0.92592    0.25754    0.25175    1.000
    N4803    N        0.90111    0.30440    0.34872    1.000
    N4804    N        0.83974    0.26028    0.44830    1.000
    Si4805   Si       0.75825    0.26711    0.44621    1.000
    Si4806   Si       0.81943    0.29833    0.43536    1.000
    N4807    N        0.78459    0.30169    0.45892    1.000
    Si4808   Si       0.93530    0.26735    0.41540    1.000
    N4809    N        0.95467    0.29782    0.39020    1.000
    Si4810   Si       0.87476    0.28220    0.46371    1.000
    N4811    N        0.91479    0.28503    0.45121    1.000
    N4812    N        0.84570    0.25513    0.56514    1.000
    N4813    N        0.77090    0.25670    0.61473    1.000
    Si4814   Si       0.85625    0.29156    0.54442    1.000
    Si4815   Si       0.76400    0.29932    0.61427    1.000
    N4816    N        0.74205    0.30353    0.57720    1.000
    N4817    N        0.87686    0.27460    0.50700    1.000
    N4818    N        0.93054    0.27779    0.60947    1.000
    Si4819   Si       0.94906    0.25017    0.58173    1.000
    N4820    N        0.98734    0.26025    0.57238    1.000
    N4821    N        0.77086    0.27595    0.71778    1.000
    Si4822   Si       0.85468    0.27807    0.65701    1.000
    N4823    N        0.82554    0.30294    0.67501    1.000
    Si4824   Si       0.91377    0.27495    0.70758    1.000
    N4825    N        0.87981    0.25752    0.68698    1.000
    N4826    N        0.94310    0.25960    0.73663    1.000
    Si4827   Si       0.95369    0.27725    0.64789    1.000
    N4828    N        0.93573    0.30015    0.68013    1.000
    Si4829   Si       0.78083    0.27761    0.80217    1.000
    Si4830   Si       0.79152    0.28555    0.86103    1.000
    N4831    N        0.80660    0.25549    0.77535    1.000
    N4832    N        0.77979    0.25198    0.83839    1.000
    N4833    N        0.74268    0.29282    0.79276    1.000
    Si4834   Si       0.86407    0.29555    0.75574    1.000
    N4835    N        0.86676    0.25155    0.75295    1.000
    Si4836   Si       0.94448    0.27778    0.77574    1.000
    Si4837   Si       0.88506    0.26871    0.82150    1.000
    N4838    N        0.89003    0.28238    0.86221    1.000
    N4839    N        0.96803    0.29456    0.85160    1.000
    N4840    N        0.92298    0.25302    0.80877    1.000
    N4841    N        0.98310    0.25954    0.79345    1.000
    N4842    N        0.87647    0.30415    0.79623    1.000
    N4843    N        0.82872    0.27535    0.88019    1.000
    N4844    N        0.83520    0.28007    0.96002    1.000
    Si4845   Si       0.79274    0.28040    0.96275    1.000
    N4846    N        0.77265    0.24624    0.94487    1.000
    N4847    N        0.75863    0.30059    0.88448    1.000
    Si4848   Si       0.86374    0.25514    0.98121    1.000
    Si4849   Si       0.93607    0.28179    0.95929    1.000
    N4850    N        0.89575    0.28249    0.96735    1.000
    Si4851   Si       0.90733    0.25232    0.88897    1.000
    Si4852   Si       0.96413    0.27510    0.88848    1.000
    N4853    N        0.93085    0.27798    0.91551    1.000
    N4854    N        0.80915    0.34662    0.06763    1.000
    N4855    N        0.84364    0.31136    0.03133    1.000
    Si4856   Si       0.80650    0.31574    0.09891    1.000
    N4857    N        0.78476    0.34886    0.00588    1.000
    Si4858   Si       0.79384    0.31252    0.03316    1.000
    N4859    N        0.76521    0.31997    0.11188    1.000
    Si4860   Si       0.85022    0.34949    0.05140    1.000
    N4861    N        0.75122    0.31570    0.04685    1.000
    Si4862   Si       0.74646    0.35475    0.02532    1.000
    N4863    N        0.88600    0.34377    0.07724    1.000
    Si4864   Si       0.88121    0.31510    0.11058    1.000
    Si4865   Si       0.98095    0.32891    0.08698    1.000
    N4866    N        0.97843    0.30440    0.05065    1.000
    N4867    N        0.83952    0.32421    0.12546    1.000
    Si4868   Si       0.75988    0.32354    0.15430    1.000
    N4869    N        0.79181    0.34442    0.17401    1.000
    Si4870   Si       0.83316    0.34419    0.16210    1.000
    N4871    N        0.85731    0.32523    0.19438    1.000
    N4872    N        0.97659    0.30294    0.23228    1.000
    N4873    N        0.97092    0.34007    0.17346    1.000
    Si4874   Si       0.94960    0.30900    0.15241    1.000
    N4875    N        0.92065    0.32473    0.21707    1.000
    N4876    N        0.90751    0.32273    0.14549    1.000
    Si4877   Si       0.96703    0.34395    0.21903    1.000
    Si4878   Si       0.89748    0.34090    0.18324    1.000
    N4879    N        0.76853    0.32519    0.30032    1.000
    N4880    N        0.83295    0.31996    0.32527    1.000
    N4881    N        0.82179    0.32652    0.25504    1.000
    Si4882   Si       0.80770    0.30866    0.29254    1.000
    Si4883   Si       0.74929    0.33148    0.26186    1.000
    N4884    N        0.75133    0.33646    0.36506    1.000
    Si4885   Si       0.74231    0.35101    0.32265    1.000
    Si4886   Si       0.87778    0.32639    0.31992    1.000
    N4887    N        0.89461    0.32074    0.28061    1.000
    N4888    N        0.97218    0.34085    0.34563    1.000
    Si4889   Si       0.91099    0.35006    0.25364    1.000
    Si4890   Si       0.94396    0.30469    0.34934    1.000
    Si4891   Si       0.78954    0.34563    0.38897    1.000
    Si4892   Si       0.76844    0.34317    0.46454    1.000
    N4893    N        0.85581    0.31978    0.44518    1.000
    N4894    N        0.81184    0.30965    0.39333    1.000
    Si4895   Si       0.93337    0.32084    0.46623    1.000
    Si4896   Si       0.87213    0.35568    0.46090    1.000
    Si4897   Si       0.98009    0.32836    0.40916    1.000
    N4898    N        0.97446    0.31738    0.45127    1.000
    N4899    N        0.91373    0.35619    0.45033    1.000
    Si4900   Si       0.82357    0.35539    0.52538    1.000
    N4901    N        0.82031    0.31322    0.53729    1.000
    N4902    N        0.79626    0.33005    0.61889    1.000
    N4903    N        0.86502    0.34590    0.50225    1.000
    N4904    N        0.73307    0.34772    0.52808    1.000
    Si4905   Si       0.89706    0.34560    0.52957    1.000
    N4906    N        0.93383    0.34589    0.61123    1.000
    Si4907   Si       0.90410    0.31333    0.60254    1.000
    N4908    N        0.88706    0.31879    0.56241    1.000
    N4909    N        0.93194    0.33028    0.50800    1.000
    N4910    N        0.97600    0.35939    0.54717    1.000
    Si4911   Si       0.83176    0.33454    0.64381    1.000
    N4912    N        0.78722    0.35191    0.70879    1.000
    Si4913   Si       0.79975    0.30984    0.70915    1.000
    N4914    N        0.82694    0.31463    0.74497    1.000
    N4915    N        0.86932    0.31093    0.63167    1.000
    N4916    N        0.95917    0.34673    0.72883    1.000
    N4917    N        0.89650    0.30868    0.73034    1.000
    Si4918   Si       0.92464    0.33348    0.70599    1.000
    N4919    N        0.90839    0.36144    0.67941    1.000
    Si4920   Si       0.81612    0.35266    0.83349    1.000
    Si4921   Si       0.81508    0.35428    0.76174    1.000
    N4922    N        0.79705    0.31210    0.82626    1.000
    N4923    N        0.83833    0.35862    0.79813    1.000
    N4924    N        0.77513    0.35944    0.77325    1.000
    Si4925   Si       0.74210    0.33705    0.79149    1.000
    N4926    N        0.84068    0.34406    0.86875    1.000
    Si4927   Si       0.94106    0.35768    0.76898    1.000
    Si4928   Si       0.87886    0.34683    0.80315    1.000
    N4929    N        0.94278    0.31881    0.79070    1.000
    Si4930   Si       0.94320    0.32803    0.83450    1.000
    N4931    N        0.90561    0.35154    0.83921    1.000
    N4932    N        0.96906    0.35783    0.85038    1.000
    N4933    N        0.77710    0.31714    0.94957    1.000
    Si4934   Si       0.74397    0.31549    0.92289    1.000
    Si4935   Si       0.79213    0.35596    0.96500    1.000
    Si4936   Si       0.85982    0.30590    0.88066    1.000
    N4937    N        0.95422    0.31301    0.98500    1.000
    Si4938   Si       0.86669    0.31293    0.95597    1.000
    N4939    N        0.87011    0.32773    0.91710    1.000
    Si4940   Si       0.92623    0.34728    0.98857    1.000
    N4941    N        0.88447    0.34013    0.98538    1.000
    Si4942   Si       0.78694    0.38492    0.07154    1.000
    N4943    N        0.85243    0.38364    0.02540    1.000
    N4944    N        0.84557    0.40350    0.08992    1.000
    N4945    N        0.78599    0.38772    0.11544    1.000
    N4946    N        0.79665    0.41893    0.04825    1.000
    N4947    N        0.74396    0.37424    0.06437    1.000
    N4948    N        0.92618    0.37047    0.02685    1.000
    Si4949   Si       0.96374    0.40848    0.09723    1.000
    N4950    N        0.91449    0.41033    0.07610    1.000
    Si4951   Si       0.93421    0.41192    0.03523    1.000
    Si4952   Si       0.91850    0.36687    0.06978    1.000
    N4953    N        0.95299    0.36252    0.09390    1.000
    N4954    N        0.81302    0.39456    0.22704    1.000
    Si4955   Si       0.82335    0.40712    0.12769    1.000
    N4956    N        0.76995    0.40880    0.17501    1.000
    Si4957   Si       0.78051    0.37633    0.20258    1.000
    Si4958   Si       0.75259    0.38858    0.14217    1.000
    N4959    N        0.84256    0.38697    0.16014    1.000
    N4960    N        0.75271    0.36664    0.23333    1.000
    N4961    N        0.90575    0.38224    0.18179    1.000
    Si4962   Si       0.87589    0.41228    0.17601    1.000
    N4963    N        0.82800    0.38565    0.29465    1.000
    N4964    N        0.75705    0.39033    0.32357    1.000
    Si4965   Si       0.83334    0.36861    0.25490    1.000
    N4966    N        0.81406    0.37499    0.36979    1.000
    Si4967   Si       0.83106    0.36456    0.33232    1.000
    N4968    N        0.94851    0.37145    0.24957    1.000
    Si4969   Si       0.89162    0.40493    0.34833    1.000
    Si4970   Si       0.96682    0.40905    0.26625    1.000
    Si4971   Si       0.96665    0.38001    0.36479    1.000
    N4972    N        0.93305    0.40719    0.35552    1.000
    N4973    N        0.87527    0.36707    0.33566    1.000
    N4974    N        0.87627    0.37335    0.24846    1.000
    Si4975   Si       0.82525    0.40070    0.48538    1.000
    Si4976   Si       0.76933    0.40735    0.42398    1.000
    N4977    N        0.85200    0.39514    0.45292    1.000
    Si4978   Si       0.82637    0.41479    0.37880    1.000
    N4979    N        0.77753    0.36500    0.42638    1.000
    N4980    N        0.79222    0.36829    0.49279    1.000
    N4981    N        0.73802    0.40858    0.39179    1.000
    N4982    N        0.96342    0.38914    0.47917    1.000
    N4983    N        0.96646    0.36966    0.40681    1.000
    N4984    N        0.87132    0.41488    0.38533    1.000
    Si4985   Si       0.94072    0.38610    0.43888    1.000
    N4986    N        0.91603    0.42244    0.43923    1.000
    Si4987   Si       0.82843    0.40546    0.56956    1.000
    N4988    N        0.81951    0.39305    0.61012    1.000
    N4989    N        0.84178    0.39795    0.52744    1.000
    Si4990   Si       0.76319    0.38025    0.52593    1.000
    N4991    N        0.79259    0.37356    0.55734    1.000
    Si4992   Si       0.78347    0.36997    0.60363    1.000
    N4993    N        0.74232    0.41804    0.51616    1.000
    N4994    N        0.95841    0.40774    0.60100    1.000
    N4995    N        0.91255    0.38610    0.52972    1.000
    Si4996   Si       0.94929    0.37020    0.51402    1.000
    Si4997   Si       0.88189    0.41662    0.53858    1.000
    Si4998   Si       0.96747    0.36758    0.58863    1.000
    N4999    N        0.87122    0.41756    0.58100    1.000
    N5000    N        0.84404    0.37213    0.66832    1.000
    N5001    N        0.83684    0.38370    0.73817    1.000
    Si5002   Si       0.81761    0.38108    0.70039    1.000
    N5003    N        0.76146    0.38755    0.64556    1.000
    Si5004   Si       0.75017    0.36942    0.73313    1.000
    N5005    N        0.74550    0.41234    0.73385    1.000
    N5006    N        0.80250    0.41972    0.68873    1.000
    Si5007   Si       0.98100    0.41633    0.70296    1.000
    N5008    N        0.90627    0.40672    0.63983    1.000
    Si5009   Si       0.88128    0.39605    0.67453    1.000
    N5010    N        0.89035    0.41633    0.71204    1.000
    Si5011   Si       0.93367    0.37219    0.64550    1.000
    N5012    N        0.96669    0.39738    0.66548    1.000
    N5013    N        0.78997    0.38670    0.83763    1.000
    Si5014   Si       0.74850    0.38591    0.84664    1.000
    N5015    N        0.85905    0.40619    0.84163    1.000
    Si5016   Si       0.81713    0.41744    0.85467    1.000
    Si5017   Si       0.89295    0.38692    0.86194    1.000
    Si5018   Si       0.96398    0.39803    0.83388    1.000
    N5019    N        0.95964    0.39029    0.79215    1.000
    N5020    N        0.92622    0.41421    0.85101    1.000
    N5021    N        0.89789    0.36865    0.76975    1.000
    Si5022   Si       0.87500    0.40046    0.74943    1.000
    N5023    N        0.76981    0.39147    0.95219    1.000
    N5024    N        0.81675    0.40240    0.89880    1.000
    Si5025   Si       0.86082    0.37714    0.98503    1.000
    N5026    N        0.74553    0.39491    0.88988    1.000
    Si5027   Si       0.77693    0.41323    0.91463    1.000
    Si5028   Si       0.84632    0.36852    0.90961    1.000
    N5029    N        0.83283    0.36555    0.95331    1.000
    N5030    N        0.93454    0.37273    0.95443    1.000
    N5031    N        0.88492    0.39073    0.90403    1.000
    N5032    N        0.87890    0.41280    0.96713    1.000
    N5033    N        0.97430    0.39402    0.90244    1.000
    Si5034   Si       0.90840    0.40460    0.93836    1.000
    Si5035   Si       0.97517    0.36985    0.93956    1.000
    Si5036   Si       0.77821    0.45918    0.04335    1.000
    N5037    N        0.79398    0.46816    0.00312    1.000
    N5038    N        0.85723    0.45323    0.02376    1.000
    N5039    N        0.86393    0.46446    0.08510    1.000
    Si5040   Si       0.84059    0.41873    0.04888    1.000
    N5041    N        0.97225    0.41842    0.05598    1.000
    N5042    N        0.92150    0.44026    0.00592    1.000
    Si5043   Si       0.88122    0.42786    0.09599    1.000
    Si5044   Si       0.81972    0.43820    0.22777    1.000
    N5045    N        0.78776    0.46362    0.20980    1.000
    Si5046   Si       0.78292    0.45027    0.16848    1.000
    N5047    N        0.81348    0.44838    0.13630    1.000
    N5048    N        0.85655    0.44140    0.20365    1.000
    N5049    N        0.74935    0.47247    0.15162    1.000
    Si5050   Si       0.91955    0.45734    0.14367    1.000
    Si5051   Si       0.95235    0.46930    0.20986    1.000
    Si5052   Si       0.88357    0.47519    0.21393    1.000
    N5053    N        0.88675    0.43114    0.13779    1.000
    N5054    N        0.98623    0.46954    0.17946    1.000
    N5055    N        0.95411    0.43735    0.12861    1.000
    N5056    N        0.91745    0.46333    0.18689    1.000
    N5057    N        0.97015    0.43506    0.23040    1.000
    N5058    N        0.82228    0.44986    0.27061    1.000
    N5059    N        0.82254    0.43607    0.33992    1.000
    N5060    N        0.76352    0.46209    0.34332    1.000
    Si5061   Si       0.83947    0.42726    0.30228    1.000
    Si5062   Si       0.74810    0.42286    0.34890    1.000
    Si5063   Si       0.80380    0.47652    0.34465    1.000
    N5064    N        0.88160    0.43155    0.31284    1.000
    Si5065   Si       0.95970    0.43654    0.33785    1.000
    Si5066   Si       0.91100    0.45542    0.29213    1.000
    N5067    N        0.94918    0.43368    0.29662    1.000
    N5068    N        0.96631    0.47726    0.35214    1.000
    N5069    N        0.90930    0.47255    0.25106    1.000
    Si5070   Si       0.76261    0.44670    0.48774    1.000
    N5071    N        0.80317    0.43176    0.40947    1.000
    Si5072   Si       0.81684    0.47132    0.42227    1.000
    N5073    N        0.74869    0.43661    0.44859    1.000
    N5074    N        0.80529    0.43998    0.49019    1.000
    N5075    N        0.85957    0.46507    0.43094    1.000
    Si5076   Si       0.93441    0.45942    0.45336    1.000
    N5077    N        0.97653    0.45034    0.44894    1.000
    Si5078   Si       0.87352    0.42450    0.42799    1.000
    N5079    N        0.93437    0.47470    0.49604    1.000
    N5080    N        0.81086    0.44547    0.55978    1.000
    Si5081   Si       0.78691    0.46847    0.58774    1.000
    Si5082   Si       0.82991    0.45986    0.52244    1.000
    N5083    N        0.87265    0.45579    0.52157    1.000
    N5084    N        0.95400    0.46133    0.56014    1.000
    Si5085   Si       0.97954    0.44331    0.58909    1.000
    Si5086   Si       0.96977    0.46845    0.52102    1.000
    Si5087   Si       0.88371    0.43734    0.61785    1.000
    N5088    N        0.91247    0.46973    0.61232    1.000
    N5089    N        0.78463    0.44556    0.62274    1.000
    N5090    N        0.74373    0.45483    0.67619    1.000
    Si5091   Si       0.77031    0.43843    0.70899    1.000
    N5092    N        0.85289    0.44059    0.65090    1.000
    Si5093   Si       0.74982    0.42908    0.64153    1.000
    N5094    N        0.78069    0.46995    0.73667    1.000
    Si5095   Si       0.84812    0.47274    0.67768    1.000
    N5096    N        0.84626    0.48063    0.72062    1.000
    Si5097   Si       0.81375    0.41860    0.64575    1.000
    N5098    N        0.98018    0.45918    0.62900    1.000
    Si5099   Si       0.94611    0.43158    0.64103    1.000
    N5100    N        0.93018    0.45683    0.67409    1.000
    Si5101   Si       0.92090    0.44726    0.71711    1.000
    N5102    N        0.95469    0.42985    0.73574    1.000
    N5103    N        0.91414    0.48337    0.73997    1.000
    N5104    N        0.82032    0.44846    0.81513    1.000
    Si5105   Si       0.78640    0.47069    0.82891    1.000
    N5106    N        0.75342    0.46809    0.80227    1.000
    N5107    N        0.78562    0.45202    0.86691    1.000
    Si5108   Si       0.86264    0.44067    0.81460    1.000
    N5109    N        0.87237    0.43785    0.77199    1.000
    N5110    N        0.95601    0.45377    0.80976    1.000
    Si5111   Si       0.92907    0.45623    0.84337    1.000
    N5112    N        0.88763    0.46887    0.83644    1.000
    Si5113   Si       0.96803    0.42944    0.77495    1.000
    Si5114   Si       0.87407    0.47819    0.75411    1.000
    N5115    N        0.77094    0.45556    0.93052    1.000
    Si5116   Si       0.76328    0.46973    0.97097    1.000
    N5117    N        0.98828    0.43958    0.99606    1.000
    N5118    N        0.95612    0.47047    0.87623    1.000
    Si5119   Si       0.96658    0.43754    0.90527    1.000
    Si5120   Si       0.88252    0.44970    0.98776    1.000
    N5121    N        0.93634    0.44003    0.93804    1.000
    Si5122   Si       0.95142    0.45565    0.97762    1.000
    Si5123   Si       0.77764    0.52364    0.06939    1.000
    N5124    N        0.85687    0.51673    0.02702    1.000
    N5125    N        0.79830    0.48561    0.07295    1.000
    Si5126   Si       0.83248    0.48964    0.99692    1.000
    N5127    N        0.77394    0.53654    0.02761    1.000
    Si5128   Si       0.82605    0.47800    0.10653    1.000
    N5129    N        0.91667    0.49995    0.05549    1.000
    Si5130   Si       0.93750    0.51376    0.09491    1.000
    Si5131   Si       0.94189    0.51531    0.02171    1.000
    N5132    N        0.98181    0.51389    0.03886    1.000
    N5133    N        0.98067    0.50221    0.10660    1.000
    Si5134   Si       0.87506    0.48604    0.05099    1.000
    Si5135   Si       0.74163    0.51341    0.16313    1.000
    N5136    N        0.83931    0.51259    0.12654    1.000
    Si5137   Si       0.75583    0.48384    0.23196    1.000
    Si5138   Si       0.85061    0.53755    0.21567    1.000
    N5139    N        0.84855    0.50753    0.24780    1.000
    N5140    N        0.87002    0.50873    0.18834    1.000
    N5141    N        0.95783    0.50902    0.22837    1.000
    Si5142   Si       0.87890    0.52055    0.14694    1.000
    N5143    N        0.91439    0.49819    0.12894    1.000
    N5144    N        0.82057    0.50529    0.31714    1.000
    Si5145   Si       0.81794    0.49321    0.27571    1.000
    N5146    N        0.77884    0.50788    0.26135    1.000
    N5147    N        0.91719    0.49406    0.30852    1.000
    Si5148   Si       0.95363    0.50993    0.32931    1.000
    Si5149   Si       0.93709    0.50584    0.26671    1.000
    N5150    N        0.97634    0.51094    0.29054    1.000
    Si5151   Si       0.89979    0.53678    0.30582    1.000
    N5152    N        0.80907    0.49450    0.38394    1.000
    Si5153   Si       0.77540    0.52098    0.47114    1.000
    N5154    N        0.80909    0.49962    0.45319    1.000
    Si5155   Si       0.83448    0.52129    0.48563    1.000
    N5156    N        0.86154    0.53229    0.41250    1.000
    Si5157   Si       0.98281    0.53878    0.49055    1.000
    N5158    N        0.98012    0.52001    0.45027    1.000
    N5159    N        0.92164    0.49002    0.42728    1.000
    Si5160   Si       0.88225    0.50389    0.43573    1.000
    N5161    N        0.87901    0.51744    0.48253    1.000
    N5162    N        0.81174    0.50351    0.59451    1.000
    N5163    N        0.82396    0.50215    0.52312    1.000
    Si5164   Si       0.81227    0.52749    0.55654    1.000
    Si5165   Si       0.74281    0.50808    0.53517    1.000
    N5166    N        0.75904    0.48959    0.49632    1.000
    N5167    N        0.75019    0.48169    0.56978    1.000
    Si5168   Si       0.89652    0.49021    0.51236    1.000
    Si5169   Si       0.92910    0.49128    0.57889    1.000
    N5170    N        0.95556    0.52440    0.58826    1.000
    N5171    N        0.90252    0.51132    0.54982    1.000
    N5172    N        0.98634    0.50936    0.52354    1.000
    Si5173   Si       0.98935    0.53233    0.56132    1.000
    Si5174   Si       0.75738    0.49727    0.67313    1.000
    N5175    N        0.76926    0.52609    0.70633    1.000
    N5176    N        0.75923    0.52181    0.63619    1.000
    N5177    N        0.80787    0.49217    0.67083    1.000
    Si5178   Si       0.80767    0.50297    0.71714    1.000
    Si5179   Si       0.80385    0.51748    0.63455    1.000
    N5180    N        0.82850    0.53930    0.73326    1.000
    N5181    N        0.93531    0.52928    0.65353    1.000
    N5182    N        0.87447    0.50456    0.65974    1.000
    Si5183   Si       0.91470    0.49194    0.65201    1.000
    N5184    N        0.96909    0.51960    0.71104    1.000
    Si5185   Si       0.93538    0.52140    0.74209    1.000
    N5186    N        0.79732    0.51224    0.83706    1.000
    Si5187   Si       0.75766    0.49386    0.76580    1.000
    N5188    N        0.77888    0.53008    0.77640    1.000
    Si5189   Si       0.82107    0.53268    0.86821    1.000
    N5190    N        0.87151    0.51215    0.78400    1.000
    Si5191   Si       0.88436    0.51238    0.82792    1.000
    N5192    N        0.92616    0.52398    0.84080    1.000
    N5193    N        0.95851    0.52901    0.77710    1.000
    N5194    N        0.81606    0.52312    0.97324    1.000
    N5195    N        0.74773    0.51363    0.88872    1.000
    N5196    N        0.81559    0.50955    0.90374    1.000
    N5197    N        0.74937    0.51065    0.96881    1.000
    Si5198   Si       0.84105    0.51314    0.93962    1.000
    Si5199   Si       0.77822    0.48317    0.89609    1.000
    N5200    N        0.86219    0.48133    0.96419    1.000
    N5201    N        0.94577    0.49925    0.98022    1.000
    Si5202   Si       0.95260    0.51434    0.87500    1.000
    N5203    N        0.93583    0.52867    0.91315    1.000
    Si5204   Si       0.96085    0.52142    0.94645    1.000
    N5205    N        0.79753    0.55560    0.09201    1.000
    Si5206   Si       0.75178    0.57426    0.02344    1.000
    N5207    N        0.74550    0.59163    0.06031    1.000
    N5208    N        0.85802    0.58471    0.00027    1.000
    N5209    N        0.87892    0.57973    0.06581    1.000
    Si5210   Si       0.97410    0.58352    0.08375    1.000
    Si5211   Si       0.87984    0.55612    0.02810    1.000
    Si5212   Si       0.90395    0.57973    0.10221    1.000
    N5213    N        0.94105    0.55788    0.09101    1.000
    N5214    N        0.92151    0.55358    0.01252    1.000
    N5215    N        0.81084    0.55632    0.22043    1.000
    Si5216   Si       0.79374    0.57237    0.18491    1.000
    N5217    N        0.82596    0.58226    0.15602    1.000
    Si5218   Si       0.81288    0.54590    0.13107    1.000
    N5219    N        0.74323    0.56636    0.24077    1.000
    N5220    N        0.77685    0.54056    0.15742    1.000
    Si5221   Si       0.97720    0.54476    0.21327    1.000
    Si5222   Si       0.86917    0.58690    0.16802    1.000
    N5223    N        0.87920    0.57237    0.20825    1.000
    N5224    N        0.94852    0.57707    0.21636    1.000
    Si5225   Si       0.91009    0.57625    0.23727    1.000
    N5226    N        0.88707    0.56059    0.13760    1.000
    N5227    N        0.79279    0.56203    0.29390    1.000
    N5228    N        0.82444    0.56175    0.36169    1.000
    Si5229   Si       0.82535    0.54930    0.32054    1.000
    Si5230   Si       0.78230    0.55173    0.25295    1.000
    N5231    N        0.86580    0.56152    0.30662    1.000
    N5232    N        0.93130    0.54703    0.33430    1.000
    Si5233   Si       0.93604    0.57804    0.36549    1.000
    N5234    N        0.91374    0.54260    0.26568    1.000
    N5235    N        0.79264    0.55974    0.41899    1.000
    Si5236   Si       0.81087    0.58015    0.45201    1.000
    Si5237   Si       0.75784    0.57958    0.40109    1.000
    N5238    N        0.80270    0.55240    0.48517    1.000
    N5239    N        0.85058    0.59411    0.44092    1.000
    Si5240   Si       0.82027    0.53384    0.39509    1.000
    Si5241   Si       0.95615    0.55373    0.43531    1.000
    N5242    N        0.89723    0.58976    0.38437    1.000
    N5243    N        0.96553    0.56058    0.39284    1.000
    Si5244   Si       0.90196    0.55517    0.48579    1.000
    N5245    N        0.91359    0.55899    0.44435    1.000
    N5246    N        0.97654    0.58696    0.45380    1.000
    Si5247   Si       0.87991    0.57174    0.41917    1.000
    Si5248   Si       0.77665    0.57519    0.51698    1.000
    N5249    N        0.84617    0.55651    0.55462    1.000
    Si5250   Si       0.84572    0.59425    0.53451    1.000
    N5251    N        0.77175    0.54125    0.54469    1.000
    Si5252   Si       0.88793    0.55039    0.56630    1.000
    N5253    N        0.91435    0.58393    0.56008    1.000
    Si5254   Si       0.94768    0.58531    0.53089    1.000
    Si5255   Si       0.93323    0.55171    0.61594    1.000
    N5256    N        0.95110    0.59077    0.61608    1.000
    N5257    N        0.89160    0.54962    0.60900    1.000
    N5258    N        0.94225    0.55503    0.50163    1.000
    N5259    N        0.87562    0.58604    0.49973    1.000
    N5260    N        0.98675    0.57473    0.54757    1.000
    Si5261   Si       0.76392    0.56917    0.70527    1.000
    N5262    N        0.82651    0.55328    0.63845    1.000
    N5263    N        0.76996    0.58608    0.66529    1.000
    N5264    N        0.78404    0.59237    0.73631    1.000
    Si5265   Si       0.80563    0.59430    0.64354    1.000
    N5266    N        0.95022    0.58713    0.69685    1.000
    Si5267   Si       0.90852    0.58195    0.70853    1.000
    N5268    N        0.88345    0.57775    0.67252    1.000
    N5269    N        0.90410    0.54879    0.73520    1.000
    Si5270   Si       0.86911    0.54658    0.64600    1.000
    Si5271   Si       0.96332    0.54930    0.68085    1.000
    N5272    N        0.84395    0.58159    0.77732    1.000
    Si5273   Si       0.80404    0.56454    0.76449    1.000
    N5274    N        0.78045    0.58430    0.80654    1.000
    Si5275   Si       0.77259    0.54182    0.81943    1.000
    N5276    N        0.79135    0.56674    0.86989    1.000
    N5277    N        0.85978    0.54138    0.85191    1.000
    Si5278   Si       0.86433    0.54751    0.75709    1.000
    Si5279   Si       0.88250    0.58104    0.84853    1.000
    N5280    N        0.90950    0.58168    0.81413    1.000
    N5281    N        0.97090    0.58773    0.81632    1.000
    Si5282   Si       0.94218    0.55183    0.81021    1.000
    N5283    N        0.77282    0.56647    0.93813    1.000
    Si5284   Si       0.75988    0.55675    0.89852    1.000
    Si5285   Si       0.77942    0.54382    0.97922    1.000
    N5286    N        0.78421    0.58648    0.99426    1.000
    N5287    N        0.91315    0.58899    0.95141    1.000
    N5288    N        0.90729    0.58947    0.88387    1.000
    N5289    N        0.86865    0.54680    0.93266    1.000
    Si5290   Si       0.86939    0.58236    0.95927    1.000
    Si5291   Si       0.94254    0.57801    0.98250    1.000
    N5292    N        0.97738    0.55927    0.96345    1.000
    Si5293   Si       0.90697    0.56028    0.91759    1.000
    N5294    N        0.84855    0.62419    0.10692    1.000
    Si5295   Si       0.85370    0.61658    0.06583    1.000
    N5296    N        0.77827    0.62116    0.11375    1.000
    N5297    N        0.81446    0.60639    0.05083    1.000
    Si5298   Si       0.81991    0.60573    0.00870    1.000
    Si5299   Si       0.78498    0.59618    0.07985    1.000
    N5300    N        0.86299    0.65380    0.04543    1.000
    N5301    N        0.91529    0.62051    0.11317    1.000
    N5302    N        0.98168    0.62650    0.09398    1.000
    Si5303   Si       0.98720    0.62157    0.02422    1.000
    N5304    N        0.77205    0.60827    0.19100    1.000
    Si5305   Si       0.75067    0.60831    0.22990    1.000
    N5306    N        0.84305    0.64353    0.23071    1.000
    Si5307   Si       0.81603    0.62261    0.13428    1.000
    Si5308   Si       0.77625    0.65262    0.18495    1.000
    Si5309   Si       0.95449    0.63371    0.12852    1.000
    Si5310   Si       0.96202    0.61671    0.20389    1.000
    N5311    N        0.96935    0.60823    0.15992    1.000
    N5312    N        0.87422    0.62971    0.16789    1.000
    Si5313   Si       0.88273    0.64508    0.12808    1.000
    N5314    N        0.93905    0.64988    0.21775    1.000
    N5315    N        0.82872    0.61391    0.31583    1.000
    N5316    N        0.75624    0.62216    0.32009    1.000
    N5317    N        0.78121    0.62135    0.25925    1.000
    Si5318   Si       0.76058    0.64316    0.35861    1.000
    Si5319   Si       0.78909    0.60419    0.29758    1.000
    Si5320   Si       0.81888    0.60512    0.36006    1.000
    Si5321   Si       0.86985    0.60590    0.30069    1.000
    Si5322   Si       0.93559    0.64459    0.32682    1.000
    N5323    N        0.89592    0.60814    0.26437    1.000
    N5324    N        0.95173    0.61804    0.35563    1.000
    N5325    N        0.89490    0.63071    0.32734    1.000
    Si5326   Si       0.92055    0.64476    0.25730    1.000
    N5327    N        0.95164    0.64253    0.28634    1.000
    N5328    N        0.77851    0.60945    0.37852    1.000
    N5329    N        0.84323    0.63463    0.38106    1.000
    N5330    N        0.78750    0.61511    0.46469    1.000
    N5331    N        0.84685    0.64830    0.48828    1.000
    Si5332   Si       0.80442    0.65295    0.47499    1.000
    Si5333   Si       0.74309    0.61274    0.46354    1.000
    N5334    N        0.96688    0.65231    0.44583    1.000
    Si5335   Si       0.88653    0.62947    0.37121    1.000
    Si5336   Si       0.95024    0.62087    0.47013    1.000
    N5337    N        0.90996    0.63175    0.45557    1.000
    Si5338   Si       0.87255    0.61879    0.46965    1.000
    Si5339   Si       0.78669    0.62133    0.57583    1.000
    Si5340   Si       0.85209    0.63631    0.59633    1.000
    N5341    N        0.81568    0.61378    0.60717    1.000
    N5342    N        0.86019    0.63160    0.55418    1.000
    N5343    N        0.80003    0.60453    0.53579    1.000
    N5344    N        0.75182    0.60012    0.58899    1.000
    N5345    N        0.94794    0.62358    0.51206    1.000
    Si5346   Si       0.91789    0.61168    0.59263    1.000
    N5347    N        0.93269    0.64843    0.57719    1.000
    N5348    N        0.88529    0.61992    0.61996    1.000
    N5349    N        0.82846    0.61759    0.67092    1.000
    Si5350   Si       0.78735    0.63537    0.73770    1.000
    Si5351   Si       0.83055    0.65121    0.69902    1.000
    N5352    N        0.83098    0.63930    0.74075    1.000
    Si5353   Si       0.97058    0.62659    0.69634    1.000
    N5354    N        0.89329    0.61614    0.73177    1.000
    Si5355   Si       0.87011    0.61775    0.66080    1.000
    N5356    N        0.93915    0.65703    0.70040    1.000
    Si5357   Si       0.89945    0.65669    0.71733    1.000
    N5358    N        0.79366    0.63908    0.85167    1.000
    N5359    N        0.75299    0.64098    0.76432    1.000
    N5360    N        0.84719    0.60756    0.84547    1.000
    Si5361   Si       0.84691    0.65097    0.82930    1.000
    Si5362   Si       0.74409    0.60624    0.79244    1.000
    Si5363   Si       0.80318    0.59787    0.84133    1.000
    Si5364   Si       0.86308    0.61809    0.76261    1.000
    Si5365   Si       0.93823    0.61738    0.81538    1.000
    N5366    N        0.92756    0.64456    0.84818    1.000
    N5367    N        0.87430    0.64633    0.79657    1.000
    N5368    N        0.93928    0.64509    0.78274    1.000
    Si5369   Si       0.97940    0.65732    0.76702    1.000
    N5370    N        0.81871    0.64584    0.99096    1.000
    N5371    N        0.79512    0.63004    0.92920    1.000
    Si5372   Si       0.77166    0.60522    0.95660    1.000
    Si5373   Si       0.82939    0.64940    0.94763    1.000
    Si5374   Si       0.78243    0.65066    0.89251    1.000
    N5375    N        0.73953    0.64891    0.89161    1.000
    N5376    N        0.97806    0.61084    0.88160    1.000
    N5377    N        0.95742    0.61587    0.99332    1.000
    N5378    N        0.86390    0.62429    0.94473    1.000
    N5379    N        0.92931    0.65194    0.92057    1.000
    Si5380   Si       0.93534    0.62434    0.88818    1.000
    Si5381   Si       0.90545    0.63449    0.95258    1.000
    N5382    N        0.77457    0.69338    0.11197    1.000
    N5383    N        0.79990    0.69217    0.04767    1.000
    Si5384   Si       0.76684    0.69253    0.07031    1.000
    Si5385   Si       0.82989    0.67407    0.02323    1.000
    N5386    N        0.85875    0.70143    0.00220    1.000
    Si5387   Si       0.74555    0.65589    0.11712    1.000
    Si5388   Si       0.89159    0.68112    0.02327    1.000
    N5389    N        0.90950    0.70620    0.05300    1.000
    N5390    N        0.96864    0.66239    0.03276    1.000
    N5391    N        0.89298    0.68597    0.12077    1.000
    Si5392   Si       0.75522    0.70705    0.24210    1.000
    N5393    N        0.78329    0.68020    0.21963    1.000
    N5394    N        0.85080    0.69944    0.20665    1.000
    N5395    N        0.74263    0.66721    0.16439    1.000
    Si5396   Si       0.84846    0.65596    0.19005    1.000
    Si5397   Si       0.86141    0.68257    0.24496    1.000
    Si5398   Si       0.80816    0.71146    0.20004    1.000
    N5399    N        0.81225    0.65356    0.16453    1.000
    Si5400   Si       0.95146    0.68998    0.20623    1.000
    Si5401   Si       0.92667    0.70679    0.14008    1.000
    N5402    N        0.91864    0.70586    0.18333    1.000
    N5403    N        0.95960    0.67661    0.13633    1.000
    N5404    N        0.82781    0.68906    0.27064    1.000
    N5405    N        0.86066    0.70834    0.32176    1.000
    N5406    N        0.78615    0.67312    0.37360    1.000
    Si5407   Si       0.77471    0.71282    0.36708    1.000
    Si5408   Si       0.80585    0.65546    0.24933    1.000
    N5409    N        0.93047    0.68892    0.33209    1.000
    N5410    N        0.89815    0.68115    0.26603    1.000
    Si5411   Si       0.89833    0.70351    0.30329    1.000
    N5412    N        0.74103    0.70219    0.46378    1.000
    N5413    N        0.84177    0.70896    0.39304    1.000
    N5414    N        0.80508    0.67631    0.43853    1.000
    Si5415   Si       0.82218    0.66978    0.39643    1.000
    Si5416   Si       0.77973    0.71251    0.44643    1.000
    Si5417   Si       0.90443    0.70980    0.48670    1.000
    Si5418   Si       0.92822    0.66604    0.42769    1.000
    Si5419   Si       0.91988    0.70247    0.37321    1.000
    N5420    N        0.90196    0.70224    0.44263    1.000
    N5421    N        0.90650    0.66302    0.38900    1.000
    N5422    N        0.95203    0.70350    0.40359    1.000
    N5423    N        0.83211    0.69975    0.53086    1.000
    Si5424   Si       0.79060    0.68976    0.54010    1.000
    Si5425   Si       0.80847    0.68820    0.61110    1.000
    N5426    N        0.79189    0.66607    0.57614    1.000
    N5427    N        0.77694    0.67016    0.50451    1.000
    Si5428   Si       0.86035    0.66662    0.52570    1.000
    N5429    N        0.85006    0.67337    0.61770    1.000
    N5430    N        0.90116    0.67974    0.51953    1.000
    N5431    N        0.97148    0.68389    0.53606    1.000
    Si5432   Si       0.94286    0.68452    0.59815    1.000
    Si5433   Si       0.93571    0.65816    0.53516    1.000
    N5434    N        0.98770    0.68235    0.60650    1.000
    N5435    N        0.77308    0.68767    0.63772    1.000
    N5436    N        0.78972    0.66556    0.70483    1.000
    Si5437   Si       0.78594    0.70154    0.67718    1.000
    Si5438   Si       0.94844    0.69189    0.67409    1.000
    N5439    N        0.87110    0.66107    0.68139    1.000
    N5440    N        0.92522    0.68344    0.63905    1.000
    Si5441   Si       0.88127    0.68381    0.64446    1.000
    N5442    N        0.89522    0.68769    0.74549    1.000
    N5443    N        0.82190    0.68214    0.80980    1.000
    N5444    N        0.75063    0.69086    0.82475    1.000
    Si5445   Si       0.79074    0.68103    0.83799    1.000
    N5446    N        0.86347    0.67142    0.86446    1.000
    N5447    N        0.91586    0.70300    0.81185    1.000
    Si5448   Si       0.90604    0.68338    0.85106    1.000
    Si5449   Si       0.90732    0.67232    0.78328    1.000
    N5450    N        0.97954    0.70021    0.76128    1.000
    N5451    N        0.76662    0.69517    0.94912    1.000
    N5452    N        0.83957    0.68725    0.93205    1.000
    Si5453   Si       0.83922    0.69881    0.88992    1.000
    N5454    N        0.79590    0.69396    0.88210    1.000
    Si5455   Si       0.95223    0.66034    0.99308    1.000
    N5456    N        0.92020    0.71029    0.88341    1.000
    Si5457   Si       0.95113    0.69199    0.90905    1.000
    N5458    N        0.90936    0.66050    0.98798    1.000
    N5459    N        0.98539    0.67318    0.96788    1.000
    Si5460   Si       0.77302    0.75841    0.05031    1.000
    N5461    N        0.78897    0.76057    0.09577    1.000
    N5462    N        0.85711    0.74288    0.09570    1.000
    N5463    N        0.74146    0.72760    0.05911    1.000
    N5464    N        0.76349    0.74538    0.00295    1.000
    N5465    N        0.81526    0.76248    0.04095    1.000
    Si5466   Si       0.82825    0.77099    0.08083    1.000
    Si5467   Si       0.94402    0.73000    0.04264    1.000
    N5468    N        0.92109    0.74144    0.11371    1.000
    Si5469   Si       0.89126    0.71699    0.08970    1.000
    N5470    N        0.97330    0.71710    0.07251    1.000
    N5471    N        0.95022    0.72151    0.99879    1.000
    N5472    N        0.78747    0.74498    0.22121    1.000
    Si5473   Si       0.77923    0.73385    0.12861    1.000
    N5474    N        0.74426    0.74637    0.15115    1.000
    N5475    N        0.80594    0.73501    0.16267    1.000
    Si5476   Si       0.76367    0.76003    0.18804    1.000
    N5477    N        0.95602    0.71889    0.23876    1.000
    N5478    N        0.88991    0.75495    0.23246    1.000
    N5479    N        0.86949    0.75340    0.16581    1.000
    Si5480   Si       0.87845    0.76857    0.12617    1.000
    Si5481   Si       0.88324    0.72834    0.19751    1.000
    N5482    N        0.80718    0.73196    0.34290    1.000
    Si5483   Si       0.78808    0.75953    0.26305    1.000
    N5484    N        0.82957    0.75756    0.27935    1.000
    Si5485   Si       0.85130    0.73485    0.35543    1.000
    N5486    N        0.77413    0.72253    0.28339    1.000
    Si5487   Si       0.81913    0.71965    0.30241    1.000
    N5488    N        0.92315    0.73977    0.29654    1.000
    N5489    N        0.96403    0.74893    0.35630    1.000
    Si5490   Si       0.95548    0.72661    0.32172    1.000
    Si5491   Si       0.92864    0.74943    0.25279    1.000
    N5492    N        0.80573    0.73774    0.47242    1.000
    N5493    N        0.76879    0.73197    0.40601    1.000
    N5494    N        0.85385    0.76278    0.43307    1.000
    Si5495   Si       0.74546    0.76819    0.41774    1.000
    Si5496   Si       0.81570    0.77541    0.45077    1.000
    N5497    N        0.92752    0.76954    0.43488    1.000
    Si5498   Si       0.98531    0.73075    0.38862    1.000
    Si5499   Si       0.87115    0.72575    0.41909    1.000
    Si5500   Si       0.94325    0.72911    0.43799    1.000
    N5501    N        0.89470    0.73865    0.37813    1.000
    N5502    N        0.98397    0.74954    0.42828    1.000
    N5503    N        0.94728    0.72187    0.48016    1.000
    N5504    N        0.81662    0.73077    0.60494    1.000
    Si5505   Si       0.80219    0.75438    0.57111    1.000
    N5506    N        0.77281    0.72809    0.55293    1.000
    Si5507   Si       0.83493    0.73554    0.50597    1.000
    N5508    N        0.82595    0.76623    0.53802    1.000
    Si5509   Si       0.94309    0.76081    0.57373    1.000
    N5510    N        0.96380    0.75930    0.53653    1.000
    Si5511   Si       0.97310    0.72254    0.51391    1.000
    N5512    N        0.92633    0.72055    0.58295    1.000
    N5513    N        0.96438    0.77185    0.61142    1.000
    N5514    N        0.87628    0.74105    0.49500    1.000
    Si5515   Si       0.76579    0.73756    0.73704    1.000
    N5516    N        0.75931    0.73016    0.69573    1.000
    Si5517   Si       0.83902    0.74767    0.64029    1.000
    Si5518   Si       0.83172    0.75450    0.71194    1.000
    N5519    N        0.81854    0.73170    0.67572    1.000
    N5520    N        0.80933    0.73252    0.74393    1.000
    Si5521   Si       0.90190    0.74673    0.67841    1.000
    N5522    N        0.87319    0.74776    0.71110    1.000
    N5523    N        0.93666    0.72665    0.69626    1.000
    Si5524   Si       0.96030    0.73142    0.73249    1.000
    N5525    N        0.87703    0.72757    0.64750    1.000
    N5526    N        0.79235    0.74303    0.80900    1.000
    Si5527   Si       0.75090    0.72830    0.80524    1.000
    Si5528   Si       0.82248    0.72319    0.78631    1.000
    N5529    N        0.86245    0.74075    0.78165    1.000
    N5530    N        0.74372    0.71528    0.76595    1.000
    N5531    N        0.91118    0.77821    0.82101    1.000
    N5532    N        0.97380    0.74731    0.81359    1.000
    Si5533   Si       0.93145    0.74326    0.80283    1.000
    N5534    N        0.92918    0.75006    0.75880    1.000
    Si5535   Si       0.88841    0.73121    0.74799    1.000
    Si5536   Si       0.77897    0.73549    0.96579    1.000
    N5537    N        0.82320    0.74335    0.97192    1.000
    N5538    N        0.77216    0.75450    0.92587    1.000
    N5539    N        0.85215    0.74227    0.88716    1.000
    Si5540   Si       0.85344    0.71499    0.96086    1.000
    Si5541   Si       0.76687    0.71403    0.90819    1.000
    Si5542   Si       0.93074    0.74408    0.96595    1.000
    N5543    N        0.95897    0.72793    0.93333    1.000
    Si5544   Si       0.89346    0.73953    0.90176    1.000
    N5545    N        0.89110    0.73057    0.94440    1.000
    N5546    N        0.84646    0.81111    0.06925    1.000
    N5547    N        0.74596    0.79597    0.04883    1.000
    Si5548   Si       0.83116    0.83015    0.03106    1.000
    Si5549   Si       0.83706    0.76947    0.00299    1.000
    N5550    N        0.97789    0.78923    0.10161    1.000
    Si5551   Si       0.91880    0.79307    0.01568    1.000
    N5552    N        0.90127    0.80313    0.11484    1.000
    Si5553   Si       0.98246    0.79247    0.05495    1.000
    Si5554   Si       0.93997    0.78311    0.12261    1.000
    N5555    N        0.87925    0.77580    0.01302    1.000
    Si5556   Si       0.86664    0.83031    0.10463    1.000
    N5557    N        0.94542    0.77342    0.04322    1.000
    N5558    N        0.83859    0.79182    0.20839    1.000
    N5559    N        0.84055    0.79919    0.13368    1.000
    N5560    N        0.78839    0.79792    0.17457    1.000
    Si5561   Si       0.80671    0.82139    0.20608    1.000
    Si5562   Si       0.80931    0.83177    0.14298    1.000
    N5563    N        0.78085    0.82962    0.23880    1.000
    Si5564   Si       0.74023    0.82033    0.23104    1.000
    Si5565   Si       0.82944    0.77235    0.16987    1.000
    N5566    N        0.94910    0.78584    0.24284    1.000
    Si5567   Si       0.87753    0.79520    0.22757    1.000
    N5568    N        0.90492    0.81589    0.20156    1.000
    N5569    N        0.98891    0.81428    0.20774    1.000
    N5570    N        0.95151    0.78405    0.16418    1.000
    Si5571   Si       0.94810    0.80368    0.20078    1.000
    N5572    N        0.76651    0.78974    0.28715    1.000
    Si5573   Si       0.85055    0.79312    0.29691    1.000
    N5574    N        0.82124    0.82861    0.30329    1.000
    N5575    N        0.86195    0.77438    0.33622    1.000
    Si5576   Si       0.78369    0.82985    0.28369    1.000
    N5577    N        0.87387    0.81460    0.26675    1.000
    N5578    N        0.92959    0.80369    0.33987    1.000
    Si5579   Si       0.97129    0.79164    0.35016    1.000
    Si5580   Si       0.89783    0.78060    0.35929    1.000
    N5581    N        0.77560    0.79068    0.44004    1.000
    N5582    N        0.82523    0.80515    0.47956    1.000
    Si5583   Si       0.75820    0.81176    0.47790    1.000
    N5584    N        0.97984    0.80269    0.39202    1.000
    Si5585   Si       0.96814    0.79346    0.43683    1.000
    Si5586   Si       0.88802    0.78906    0.43108    1.000
    N5587    N        0.88214    0.82457    0.45517    1.000
    N5588    N        0.88504    0.80478    0.39282    1.000
    N5589    N        0.94971    0.83228    0.44773    1.000
    N5590    N        0.79034    0.79620    0.58484    1.000
    Si5591   Si       0.81501    0.80638    0.52243    1.000
    Si5592   Si       0.75782    0.81426    0.55798    1.000
    N5593    N        0.77084    0.80385    0.51805    1.000
    Si5594   Si       0.80907    0.81957    0.61813    1.000
    N5595    N        0.91773    0.79694    0.57811    1.000
    N5596    N        0.96933    0.82866    0.54120    1.000
    Si5597   Si       0.98671    0.79408    0.52073    1.000
    Si5598   Si       0.92443    0.83004    0.55031    1.000
    Si5599   Si       0.93023    0.79679    0.62127    1.000
    N5600    N        0.83742    0.79231    0.63733    1.000
    N5601    N        0.82382    0.79830    0.72080    1.000
    Si5602   Si       0.78148    0.81187    0.72456    1.000
    Si5603   Si       0.85762    0.82544    0.73570    1.000
    N5604    N        0.74096    0.82162    0.70018    1.000
    N5605    N        0.76295    0.77898    0.74830    1.000
    N5606    N        0.77754    0.83376    0.64377    1.000
    Si5607   Si       0.98233    0.79924    0.70489    1.000
    N5608    N        0.99014    0.80452    0.66349    1.000
    N5609    N        0.93989    0.80483    0.71339    1.000
    N5610    N        0.90891    0.78303    0.65833    1.000
    Si5611   Si       0.91448    0.81926    0.68133    1.000
    N5612    N        0.77294    0.81324    0.80872    1.000
    Si5613   Si       0.79920    0.78313    0.82543    1.000
    N5614    N        0.84125    0.78704    0.82699    1.000
    Si5615   Si       0.74252    0.79497    0.78242    1.000
    N5616    N        0.94383    0.81986    0.78523    1.000
    Si5617   Si       0.93957    0.81094    0.82709    1.000
    N5618    N        0.88371    0.80123    0.76185    1.000
    N5619    N        0.98326    0.81060    0.83951    1.000
    Si5620   Si       0.92576    0.79509    0.75434    1.000
    Si5621   Si       0.87363    0.78083    0.79772    1.000
    N5622    N        0.79729    0.78321    0.87088    1.000
    Si5623   Si       0.84129    0.78209    0.87142    1.000
    Si5624   Si       0.76950    0.79057    0.90474    1.000
    N5625    N        0.78413    0.82876    0.92219    1.000
    N5626    N        0.85673    0.82173    0.88374    1.000
    N5627    N        0.82199    0.80944    0.99345    1.000
    N5628    N        0.93187    0.78629    0.97314    1.000
    N5629    N        0.91047    0.77912    0.89401    1.000
    Si5630   Si       0.90058    0.82000    0.88857    1.000
    Si5631   Si       0.94665    0.81942    0.94878    1.000
    N5632    N        0.98207    0.80089    0.92678    1.000
    Si5633   Si       0.79215    0.86359    0.08848    1.000
    N5634    N        0.83061    0.86150    0.11106    1.000
    N5635    N        0.79350    0.84664    0.04875    1.000
    N5636    N        0.86034    0.86127    0.02239    1.000
    N5637    N        0.77242    0.83988    0.11925    1.000
    Si5638   Si       0.75708    0.83434    0.02946    1.000
    Si5639   Si       0.89678    0.86581    0.04694    1.000
    N5640    N        0.89517    0.86234    0.09021    1.000
    Si5641   Si       0.96407    0.85113    0.01562    1.000
    N5642    N        0.92375    0.83700    0.02667    1.000
    N5643    N        0.97220    0.88779    0.03831    1.000
    N5644    N        0.81488    0.85708    0.17909    1.000
    N5645    N        0.91977    0.87267    0.15627    1.000
    Si5646   Si       0.91284    0.89180    0.11687    1.000
    N5647    N        0.94634    0.86349    0.21857    1.000
    N5648    N        0.88358    0.87878    0.22936    1.000
    Si5649   Si       0.90891    0.85896    0.19797    1.000
    Si5650   Si       0.83963    0.86338    0.32147    1.000
    N5651    N        0.76297    0.86618    0.29492    1.000
    N5652    N        0.86092    0.85681    0.35671    1.000
    N5653    N        0.86315    0.88198    0.29112    1.000
    N5654    N        0.92839    0.85342    0.28566    1.000
    Si5655   Si       0.88723    0.85600    0.26632    1.000
    Si5656   Si       0.93982    0.84417    0.32762    1.000
    Si5657   Si       0.96084    0.86688    0.26030    1.000
    N5658    N        0.92473    0.87827    0.35187    1.000
    N5659    N        0.98196    0.84319    0.34054    1.000
    Si5660   Si       0.88569    0.89060    0.37034    1.000
    Si5661   Si       0.78151    0.83462    0.42308    1.000
    N5662    N        0.84618    0.87953    0.47855    1.000
    N5663    N        0.76735    0.85191    0.46137    1.000
    Si5664   Si       0.84153    0.84049    0.46090    1.000
    N5665    N        0.76269    0.84428    0.38699    1.000
    Si5666   Si       0.74474    0.88830    0.46381    1.000
    N5667    N        0.82523    0.83811    0.41921    1.000
    Si5668   Si       0.86259    0.84061    0.39751    1.000
    N5669    N        0.98075    0.87330    0.40552    1.000
    Si5670   Si       0.96604    0.87263    0.44525    1.000
    N5671    N        0.92397    0.88596    0.46539    1.000
    Si5672   Si       0.91533    0.84373    0.47282    1.000
    N5673    N        0.88725    0.87494    0.41049    1.000
    N5674    N        0.76782    0.85634    0.55897    1.000
    Si5675   Si       0.80999    0.86525    0.56494    1.000
    N5676    N        0.82770    0.85636    0.60428    1.000
    N5677    N        0.83198    0.84372    0.53534    1.000
    Si5678   Si       0.86481    0.86372    0.51491    1.000
    N5679    N        0.92917    0.86504    0.57712    1.000
    N5680    N        0.90218    0.83996    0.51588    1.000
    Si5681   Si       0.97373    0.85967    0.57139    1.000
    Si5682   Si       0.91937    0.87342    0.62090    1.000
    Si5683   Si       0.74211    0.86345    0.71973    1.000
    Si5684   Si       0.75838    0.87606    0.64484    1.000
    N5685    N        0.78015    0.85325    0.73926    1.000
    Si5686   Si       0.84325    0.89389    0.62999    1.000
    N5687    N        0.88052    0.84124    0.70105    1.000
    N5688    N        0.93315    0.83741    0.64196    1.000
    Si5689   Si       0.98670    0.87011    0.71817    1.000
    N5690    N        0.88263    0.88184    0.64076    1.000
    N5691    N        0.94890    0.87427    0.73701    1.000
    N5692    N        0.98763    0.87283    0.67549    1.000
    Si5693   Si       0.97648    0.84141    0.64644    1.000
    Si5694   Si       0.87235    0.88076    0.68531    1.000
    Si5695   Si       0.77501    0.85499    0.81887    1.000
    N5696    N        0.79559    0.85203    0.85673    1.000
    Si5697   Si       0.81090    0.87853    0.75811    1.000
    N5698    N        0.85056    0.86090    0.76317    1.000
    Si5699   Si       0.84000    0.85771    0.86499    1.000
    N5700    N        0.79814    0.88672    0.79970    1.000
    N5701    N        0.86423    0.88134    0.83673    1.000
    N5702    N        0.91594    0.87927    0.79925    1.000
    Si5703   Si       0.95155    0.86118    0.77812    1.000
    Si5704   Si       0.91569    0.88420    0.84360    1.000
    Si5705   Si       0.87225    0.88439    0.79315    1.000
    N5706    N        0.91986    0.83942    0.85445    1.000
    N5707    N        0.98942    0.86866    0.80241    1.000
    Si5708   Si       0.85683    0.88281    0.98533    1.000
    Si5709   Si       0.77275    0.85850    0.89218    1.000
    N5710    N        0.82271    0.87082    0.96275    1.000
    N5711    N        0.76216    0.83804    0.98721    1.000
    Si5712   Si       0.79862    0.83366    0.96500    1.000
    N5713    N        0.84482    0.88831    0.89467    1.000
    N5714    N        0.96321    0.85277    0.97160    1.000
    Si5715   Si       0.98073    0.88454    0.94904    1.000
    Si5716   Si       0.91272    0.88444    0.92383    1.000
    N5717    N        0.91727    0.84201    0.92234    1.000
    N5718    N        0.83416    0.91681    0.07256    1.000
    Si5719   Si       0.79496    0.93468    0.06822    1.000
    N5720    N        0.77107    0.90277    0.08654    1.000
    Si5721   Si       0.83908    0.90394    0.11443    1.000
    N5722    N        0.78342    0.94165    0.02771    1.000
    Si5723   Si       0.74519    0.94040    0.00846    1.000
    N5724    N        0.84842    0.92591    0.99940    1.000
    Si5725   Si       0.86356    0.92820    0.04213    1.000
    N5726    N        0.90412    0.91074    0.04299    1.000
    N5727    N        0.94376    0.91620    0.09869    1.000
    Si5728   Si       0.94492    0.91937    0.05484    1.000
    N5729    N        0.96141    0.95021    0.02662    1.000
    N5730    N        0.74090    0.94891    0.12598    1.000
    Si5731   Si       0.79504    0.93985    0.22794    1.000
    N5732    N        0.80769    0.92075    0.14318    1.000
    N5733    N        0.83180    0.92019    0.20759    1.000
    N5734    N        0.77210    0.91027    0.20480    1.000
    Si5735   Si       0.80713    0.89770    0.18123    1.000
    Si5736   Si       0.97737    0.92964    0.12108    1.000
    N5737    N        0.96333    0.93164    0.21343    1.000
    Si5738   Si       0.87259    0.91917    0.21984    1.000
    N5739    N        0.98644    0.89879    0.15245    1.000
    N5740    N        0.89995    0.93899    0.19243    1.000
    N5741    N        0.87809    0.91721    0.12774    1.000
    Si5742   Si       0.97279    0.89334    0.19320    1.000
    Si5743   Si       0.84568    0.92117    0.28574    1.000
    Si5744   Si       0.82507    0.93484    0.35352    1.000
    N5745    N        0.80544    0.92226    0.26770    1.000
    Si5746   Si       0.78291    0.90337    0.30032    1.000
    N5747    N        0.74892    0.93055    0.30813    1.000
    N5748    N        0.81716    0.89964    0.32738    1.000
    N5749    N        0.78200    0.94046    0.36380    1.000
    N5750    N        0.87204    0.94220    0.25781    1.000
    Si5751   Si       0.96412    0.93349    0.30891    1.000
    N5752    N        0.97468    0.90518    0.27740    1.000
    N5753    N        0.97878    0.92173    0.34765    1.000
    N5754    N        0.81572    0.94211    0.43347    1.000
    N5755    N        0.85894    0.92612    0.37806    1.000
    Si5756   Si       0.84047    0.92188    0.46498    1.000
    N5757    N        0.74765    0.92241    0.43660    1.000
    Si5758   Si       0.94720    0.91853    0.48476    1.000
    N5759    N        0.93160    0.92134    0.40207    1.000
    N5760    N        0.98598    0.90398    0.46943    1.000
    Si5761   Si       0.90424    0.90784    0.43361    1.000
    Si5762   Si       0.95550    0.89604    0.37545    1.000
    N5763    N        0.87607    0.93910    0.44589    1.000
    Si5764   Si       0.84064    0.92596    0.53758    1.000
    N5765    N        0.80755    0.90835    0.55942    1.000
    Si5766   Si       0.79888    0.93147    0.59387    1.000
    N5767    N        0.83991    0.93551    0.61239    1.000
    N5768    N        0.75288    0.90789    0.50338    1.000
    N5769    N        0.82788    0.94257    0.49948    1.000
    N5770    N        0.87245    0.89753    0.53905    1.000
    N5771    N        0.94089    0.91696    0.52740    1.000
    N5772    N        0.90222    0.93307    0.58687    1.000
    Si5773   Si       0.91095    0.90237    0.55654    1.000
    Si5774   Si       0.97663    0.93056    0.54757    1.000
    Si5775   Si       0.93373    0.94479    0.61221    1.000
    N5776    N        0.78040    0.90701    0.62641    1.000
    Si5777   Si       0.85625    0.93116    0.73389    1.000
    N5778    N        0.81556    0.91210    0.73266    1.000
    Si5779   Si       0.79701    0.90947    0.69462    1.000
    Si5780   Si       0.76545    0.94355    0.64353    1.000
    N5781    N        0.75704    0.89250    0.68686    1.000
    N5782    N        0.83072    0.89131    0.67268    1.000
    N5783    N        0.88845    0.91245    0.71219    1.000
    N5784    N        0.94538    0.90709    0.63108    1.000
    Si5785   Si       0.97736    0.91090    0.66038    1.000
    Si5786   Si       0.93294    0.91442    0.72696    1.000
    N5787    N        0.95315    0.93016    0.69266    1.000
    Si5788   Si       0.77755    0.92231    0.81031    1.000
    N5789    N        0.75957    0.91582    0.85015    1.000
    N5790    N        0.74646    0.93572    0.78090    1.000
    Si5791   Si       0.86497    0.91954    0.87010    1.000
    N5792    N        0.87053    0.92682    0.77640    1.000
    N5793    N        0.95452    0.91388    0.84574    1.000
    N5794    N        0.89379    0.94315    0.84329    1.000
    N5795    N        0.95755    0.94239    0.75246    1.000
    Si5796   Si       0.92860    0.93971    0.86964    1.000
    N5797    N        0.78017    0.89510    0.91438    1.000
    Si5798   Si       0.82027    0.89986    0.92842    1.000
    N5799    N        0.83961    0.94004    0.93701    1.000
    Si5800   Si       0.76022    0.92523    0.89189    1.000
    N5801    N        0.73929    0.90373    0.98533    1.000
    Si5802   Si       0.87523    0.93930    0.96448    1.000
    N5803    N        0.94803    0.90949    0.93291    1.000
    N5804    N        0.90633    0.90354    0.88557    1.000
    N5805    N        0.88789    0.89630    0.95818    1.000
    N5806    N        0.79879    0.97008    0.09269    1.000
    N5807    N        0.85176    0.97011    0.04015    1.000
    Si5808   Si       0.82007    0.95808    0.00791    1.000
    Si5809   Si       0.96582    0.98642    0.00028    1.000
    N5810    N        0.77635    0.99490    0.15083    1.000
    N5811    N        0.80582    0.98339    0.21593    1.000
    N5812    N        0.85567    0.98401    0.16187    1.000
    Si5813   Si       0.78494    0.95660    0.13311    1.000
    Si5814   Si       0.77528    0.00453    0.23905    1.000
    Si5815   Si       0.83618    0.00595    0.19600    1.000
    Si5816   Si       0.93288    0.96141    0.20831    1.000
    N5817    N        0.98039    0.97267    0.13013    1.000
    N5818    N        0.95125    0.99490    0.18807    1.000
    Si5819   Si       0.88582    0.95226    0.15304    1.000
    N5820    N        0.91155    0.98087    0.13279    1.000
    Si5821   Si       0.94865    0.99999    0.14601    1.000
    Si5822   Si       0.85117    0.99225    0.33213    1.000
    N5823    N        0.75692    0.99178    0.33859    1.000
    N5824    N        0.84566    0.95145    0.31619    1.000
    N5825    N        0.75479    0.96509    0.24702    1.000
    Si5826   Si       0.74441    0.95015    0.34597    1.000
    N5827    N        0.92677    0.95576    0.30350    1.000
    Si5828   Si       0.89616    0.97093    0.27651    1.000
    Si5829   Si       0.95436    0.99215    0.27776    1.000
    N5830    N        0.88855    0.00469    0.34995    1.000
    N5831    N        0.87610    0.00966    0.28785    1.000
    N5832    N        0.98711    0.97178    0.30004    1.000
    N5833    N        0.92599    0.98168    0.24728    1.000
    N5834    N        0.82921    0.97841    0.37262    1.000
    Si5835   Si       0.78724    0.99275    0.37102    1.000
    N5836    N        0.76066    0.98562    0.40586    1.000
    N5837    N        0.76267    0.97554    0.47323    1.000
    Si5838   Si       0.77518    0.95607    0.43406    1.000
    Si5839   Si       0.85135    0.95802    0.40845    1.000
    N5840    N        0.86514    0.99602    0.48278    1.000
    N5841    N        0.94392    0.99185    0.40297    1.000
    N5842    N        0.93556    0.95331    0.46070    1.000
    Si5843   Si       0.95294    0.95484    0.42068    1.000
    N5844    N        0.87439    0.99657    0.41904    1.000
    Si5845   Si       0.89872    0.98007    0.45842    1.000
    N5846    N        0.84789    0.96750    0.55319    1.000
    N5847    N        0.76783    0.96278    0.60131    1.000
    Si5848   Si       0.83786    0.98320    0.51335    1.000
    Si5849   Si       0.86683    0.96356    0.59142    1.000
    Si5850   Si       0.76826    0.00715    0.60668    1.000
    N5851    N        0.88401    0.00146    0.60081    1.000
    N5852    N        0.96714    0.95301    0.58311    1.000
    N5853    N        0.84599    0.96789    0.71649    1.000
    Si5854   Si       0.80400    0.98205    0.71054    1.000
    N5855    N        0.78795    0.95196    0.68150    1.000
    N5856    N        0.77045    0.99211    0.74273    1.000
    N5857    N        0.91701    0.98480    0.71598    1.000
    Si5858   Si       0.94493    0.97218    0.68248    1.000
    N5859    N        0.98064    0.99781    0.68500    1.000
    N5860    N        0.93250    0.97711    0.64210    1.000
    Si5861   Si       0.87613    0.99894    0.71187    1.000
    Si5862   Si       0.76643    0.97392    0.78231    1.000
    Si5863   Si       0.82793    0.97915    0.83589    1.000
    N5864    N        0.79919    0.95948    0.81105    1.000
    N5865    N        0.85985    0.99089    0.81065    1.000
    N5866    N        0.83677    0.95242    0.87095    1.000
    N5867    N        0.91956    0.97921    0.79116    1.000
    N5868    N        0.97658    0.99404    0.83535    1.000
    Si5869   Si       0.94058    0.98182    0.75266    1.000
    Si5870   Si       0.88727    0.95713    0.80349    1.000
    N5871    N        0.80306    0.98772    0.98105    1.000
    Si5872   Si       0.82102    0.96835    0.90885    1.000
    N5873    N        0.77750    0.96328    0.90882    1.000
    Si5874   Si       0.76020    0.00007    0.97974    1.000
    N5875    N        0.94927    0.96882    0.89405    1.000
    N5876    N        0.97852    0.97224    0.95902    1.000
    Si5877   Si       0.94572    0.95421    0.93575    1.000
    Si5878   Si       0.97340    0.00111    0.87820    1.000
    N5879    N        0.90762    0.96556    0.95636    1.000
