# CIF file generated by openbabel 3.1.1, see https://openbabel.org
data_I
_chemical_name_common '3.01-44.aims'
_cell_length_a 39.8991
_cell_length_b 39.8991
_cell_length_c 39.8991
_cell_angle_alpha 90
_cell_angle_beta 90
_cell_angle_gamma 90
loop_
    _atom_site_label
    _atom_site_type_symbol
    _atom_site_fract_x
    _atom_site_fract_y
    _atom_site_fract_z
    _atom_site_occupancy
    N0       N        0.03606    0.02175    0.08475    1.000
    Si1      Si       0.99768    0.03194    0.10154    1.000
    N2       N        0.02560    0.06988    0.00764    1.000
    N3       N        0.02063    0.13138    0.09881    1.000
    Si4      Si       0.01486    0.10939    0.99762    1.000
    Si5      Si       0.04955    0.12391    0.06778    1.000
    N6       N        0.02609    0.13542    0.03273    1.000
    Si7      Si       0.03712    0.22499    0.06471    1.000
    Si8      Si       0.00725    0.17082    0.10624    1.000
    N9       N        0.00840    0.19133    0.06975    1.000
    Si10     Si       0.01374    0.17647    0.02924    1.000
    Si11     Si       0.99071    0.09975    0.19601    1.000
    Si12     Si       0.00112    0.10140    0.12244    1.000
    N13      N        0.03317    0.07051    0.12762    1.000
    Si14     Si       0.01055    0.03981    0.23197    1.000
    Si15     Si       0.02626    0.04098    0.16061    1.000
    N16      N        0.00701    0.06055    0.19371    1.000
    N17      N        0.01784    0.12696    0.21704    1.000
    N18      N        0.99740    0.01292    0.14003    1.000
    N19      N        0.04671    0.22544    0.18925    1.000
    Si20     Si       0.00985    0.21213    0.16860    1.000
    N21      N        0.03058    0.19227    0.13522    1.000
    Si22     Si       0.99752    0.16311    0.22921    1.000
    Si23     Si       0.02230    0.09208    0.28715    1.000
    Si24     Si       0.00991    0.05449    0.35673    1.000
    N25      N        0.03629    0.05780    0.26181    1.000
    N26      N        0.03144    0.08169    0.32883    1.000
    N27      N        0.02304    0.01243    0.35781    1.000
    Si28     Si       0.02493    0.21649    0.28207    1.000
    N29      N        0.02882    0.18876    0.24876    1.000
    N30      N        0.02347    0.25487    0.26155    1.000
    Si31     Si       0.00813    0.03622    0.42616    1.000
    N32      N        0.02262    0.06659    0.39733    1.000
    N33      N        0.01630    0.05768    0.46274    1.000
    N34      N        0.03907    0.12710    0.38301    1.000
    Si35     Si       0.99698    0.09559    0.46660    1.000
    N36      N        0.00023    0.12965    0.44072    1.000
    N37      N        0.01276    0.23779    0.37267    1.000
    Si38     Si       0.01197    0.15490    0.40457    1.000
    N39      N        0.03394    0.24048    0.47812    1.000
    N40      N        0.02500    0.19081    0.42659    1.000
    Si41     Si       0.00559    0.21947    0.45288    1.000
    Si42     Si       0.00978    0.15598    0.47630    1.000
    N43      N        0.02089    0.04317    0.60338    1.000
    Si44     Si       0.03080    0.07473    0.57480    1.000
    N45      N        0.03624    0.06634    0.53200    1.000
    N46      N        0.99889    0.12228    0.50184    1.000
    N47      N        0.99573    0.09960    0.57070    1.000
    Si48     Si       0.03601    0.04127    0.49784    1.000
    Si49     Si       0.99197    0.13154    0.54262    1.000
    N50      N        0.03497    0.20882    0.60234    1.000
    N51      N        0.02203    0.16391    0.54874    1.000
    Si52     Si       0.00709    0.18357    0.58468    1.000
    N53      N        0.01436    0.24754    0.55094    1.000
    N54      N        0.00647    0.15516    0.61591    1.000
    Si55     Si       0.03374    0.12023    0.62712    1.000
    Si56     Si       0.99977    0.05269    0.64044    1.000
    Si57     Si       0.00209    0.06657    0.71274    1.000
    N58      N        0.02139    0.04622    0.67824    1.000
    N59      N        0.99849    0.09688    0.64074    1.000
    N60      N        0.99589    0.10858    0.70907    1.000
    Si61     Si       0.00701    0.25273    0.65236    1.000
    Si62     Si       0.02968    0.13787    0.70234    1.000
    N63      N        0.00416    0.21066    0.66171    1.000
    N64      N        0.03685    0.23448    0.73792    1.000
    Si65     Si       0.03326    0.18646    0.64178    1.000
    N66      N        0.01102    0.17363    0.71919    1.000
    N67      N        0.03751    0.11644    0.79032    1.000
    Si68     Si       0.01189    0.02883    0.77988    1.000
    N69      N        0.99689    0.11891    0.85039    1.000
    Si70     Si       0.99902    0.10262    0.80768    1.000
    Si71     Si       0.01813    0.01365    0.85906    1.000
    N72      N        0.01966    0.05525    0.87108    1.000
    N73      N        0.03428    0.01203    0.81648    1.000
    N74      N        0.02516    0.05722    0.74991    1.000
    N75      N        0.99018    0.06013    0.80549    1.000
    N76      N        0.01647    0.23570    0.81597    1.000
    N77      N        0.04083    0.18684    0.78332    1.000
    Si78     Si       0.01386    0.20066    0.75236    1.000
    Si79     Si       0.04461    0.20120    0.82546    1.000
    Si80     Si       0.03699    0.03561    0.98230    1.000
    Si81     Si       0.03109    0.09349    0.93054    1.000
    N82      N        0.98755    0.09318    0.91798    1.000
    N83      N        0.04412    0.11840    0.96539    1.000
    Si84     Si       0.98601    0.08281    0.87638    1.000
    Si85     Si       0.02570    0.20599    0.92219    1.000
    N86      N        0.00717    0.17070    0.90228    1.000
    Si87     Si       0.02352    0.14059    0.87823    1.000
    N88      N        0.00486    0.23460    0.89618    1.000
    N89      N        0.01878    0.21813    0.96259    1.000
    N90      N        0.03254    0.33089    0.10727    1.000
    N91      N        0.00970    0.32762    0.01027    1.000
    Si92     Si       0.03766    0.28751    0.10290    1.000
    Si93     Si       0.04048    0.35594    0.02214    1.000
    N94      N        0.03051    0.38074    0.05671    1.000
    N95      N        0.01450    0.25942    0.07810    1.000
    Si96     Si       0.00476    0.41086    0.03953    1.000
    Si97     Si       0.00697    0.47400    0.00824    1.000
    N98      N        0.03213    0.44411    0.02820    1.000
    Si99     Si       0.99895    0.34043    0.13134    1.000
    N100     N        0.03361    0.27486    0.14568    1.000
    N101     N        0.01275    0.34620    0.17154    1.000
    Si102    Si       0.00475    0.32875    0.20950    1.000
    N103     N        0.03894    0.32957    0.23750    1.000
    Si104    Si       0.99396    0.27855    0.16539    1.000
    N105     N        0.99346    0.28865    0.20891    1.000
    Si106    Si       0.03071    0.38772    0.17467    1.000
    N107     N        0.99946    0.41158    0.19288    1.000
    Si108    Si       0.04774    0.49261    0.20849    1.000
    N109     N        0.01084    0.48457    0.18755    1.000
    N110     N        0.04363    0.39480    0.13382    1.000
    Si111    Si       0.03123    0.29893    0.26857    1.000
    N112     N        0.01965    0.39229    0.26239    1.000
    Si113    Si       0.02095    0.40763    0.30515    1.000
    N114     N        0.03058    0.45067    0.29520    1.000
    Si115    Si       0.99990    0.48057    0.29819    1.000
    Si116    Si       0.99452    0.50531    0.35326    1.000
    N117     N        0.99310    0.35703    0.38659    1.000
    Si118    Si       0.02845    0.34071    0.40873    1.000
    N119     N        0.02624    0.29700    0.40855    1.000
    N120     N        0.03421    0.36101    0.44766    1.000
    Si121    Si       0.99826    0.37524    0.46553    1.000
    Si122    Si       0.99580    0.26944    0.39743    1.000
    N123     N        0.02839    0.46309    0.44796    1.000
    N124     N        0.01141    0.40927    0.48899    1.000
    Si125    Si       0.99450    0.39862    0.37305    1.000
    Si126    Si       0.04343    0.43255    0.47683    1.000
    N127     N        0.02912    0.42037    0.38591    1.000
    Si128    Si       0.99076    0.48346    0.46263    1.000
    Si129    Si       0.03618    0.45888    0.40480    1.000
    N130     N        0.02278    0.49591    0.38427    1.000
    N131     N        0.00009    0.34892    0.60084    1.000
    N132     N        0.02325    0.30008    0.50429    1.000
    N133     N        0.00012    0.27438    0.61568    1.000
    Si134    Si       0.01120    0.25740    0.50903    1.000
    Si135    Si       0.03019    0.40254    0.58808    1.000
    Si136    Si       0.01274    0.47902    0.58602    1.000
    N137     N        0.03933    0.44368    0.57636    1.000
    N138     N        0.99778    0.40010    0.55817    1.000
    N139     N        0.01842    0.50884    0.55461    1.000
    N140     N        0.00263    0.33693    0.66592    1.000
    N141     N        0.02185    0.30324    0.72150    1.000
    Si142    Si       0.99996    0.37720    0.65079    1.000
    Si143    Si       0.04371    0.26807    0.70809    1.000
    N144     N        0.04682    0.26228    0.66537    1.000
    Si145    Si       0.98941    0.31560    0.62666    1.000
    N146     N        0.99263    0.40414    0.68694    1.000
    Si147    Si       0.02002    0.43268    0.70718    1.000
    Si148    Si       0.03122    0.47722    0.64538    1.000
    N149     N        0.02809    0.40215    0.63076    1.000
    N150     N        0.99530    0.46575    0.71986    1.000
    N151     N        0.99260    0.46998    0.62723    1.000
    N152     N        0.04281    0.40820    0.73548    1.000
    Si153    Si       0.99366    0.50625    0.70374    1.000
    N154     N        0.02567    0.35399    0.77409    1.000
    N155     N        0.02146    0.35736    0.84451    1.000
    Si156    Si       0.02803    0.27559    0.81233    1.000
    Si157    Si       0.00172    0.34501    0.80922    1.000
    N158     N        0.99504    0.30128    0.80842    1.000
    Si159    Si       0.04452    0.32238    0.75307    1.000
    Si160    Si       0.03736    0.32505    0.86964    1.000
    Si161    Si       0.02149    0.39679    0.77177    1.000
    Si162    Si       0.03034    0.39967    0.84770    1.000
    N163     N        0.01585    0.49901    0.85321    1.000
    N164     N        0.04176    0.49986    0.78957    1.000
    N165     N        0.04296    0.40951    0.80838    1.000
    N166     N        0.99930    0.28481    0.95004    1.000
    N167     N        0.00016    0.30822    0.88856    1.000
    Si168    Si       0.02575    0.30084    0.97963    1.000
    Si169    Si       0.01399    0.27335    0.90929    1.000
    N170     N        0.01065    0.45615    0.96735    1.000
    N171     N        0.99910    0.41850    0.87159    1.000
    N172     N        0.01188    0.38439    0.93412    1.000
    Si173    Si       0.00677    0.46426    0.87886    1.000
    Si174    Si       0.99469    0.41724    0.96334    1.000
    N175     N        0.00844    0.53815    0.07574    1.000
    N176     N        0.01330    0.58322    0.02260    1.000
    Si177    Si       0.99792    0.54486    0.03403    1.000
    N178     N        0.02618    0.62400    0.07552    1.000
    N179     N        0.01996    0.51609    0.01082    1.000
    Si180    Si       0.99594    0.61838    0.04132    1.000
    Si181    Si       0.99174    0.62633    0.10407    1.000
    Si182    Si       0.04790    0.53569    0.09545    1.000
    N183     N        0.99962    0.73118    0.11190    1.000
    N184     N        0.03679    0.70562    0.01911    1.000
    Si185    Si       0.99377    0.69369    0.01803    1.000
    N186     N        0.98767    0.65111    0.01303    1.000
    Si187    Si       0.02468    0.58615    0.14800    1.000
    N188     N        0.01318    0.55769    0.18089    1.000
    N189     N        0.03090    0.62335    0.16737    1.000
    Si190    Si       0.03112    0.56312    0.22212    1.000
    N191     N        0.04503    0.52538    0.23808    1.000
    N192     N        0.99519    0.57259    0.24585    1.000
    N193     N        0.98909    0.58884    0.12362    1.000
    Si194    Si       0.99055    0.52207    0.17280    1.000
    N195     N        0.04091    0.69160    0.16045    1.000
    Si196    Si       0.01116    0.66132    0.16065    1.000
    N197     N        0.04817    0.64076    0.23489    1.000
    Si198    Si       0.00818    0.66135    0.23119    1.000
    Si199    Si       0.02058    0.72796    0.15018    1.000
    N200     N        0.98830    0.66324    0.12478    1.000
    Si201    Si       0.03092    0.55899    0.32150    1.000
    N202     N        0.00634    0.59281    0.31325    1.000
    N203     N        0.01375    0.51892    0.31686    1.000
    N204     N        0.03909    0.56230    0.36473    1.000
    Si205    Si       0.02097    0.63083    0.33100    1.000
    Si206    Si       0.98986    0.70508    0.32123    1.000
    N207     N        0.03107    0.71986    0.31915    1.000
    Si208    Si       0.04112    0.71906    0.27566    1.000
    N209     N        0.00823    0.69963    0.25022    1.000
    N210     N        0.99469    0.66330    0.32118    1.000
    N211     N        0.02077    0.62989    0.37457    1.000
    Si212    Si       0.03103    0.59075    0.39538    1.000
    N213     N        0.01073    0.52091    0.46818    1.000
    N214     N        0.99742    0.57456    0.41691    1.000
    Si215    Si       0.04110    0.63328    0.45366    1.000
    N216     N        0.01950    0.75191    0.38032    1.000
    Si217    Si       0.99519    0.65334    0.40022    1.000
    N218     N        0.00015    0.63801    0.44002    1.000
    N219     N        0.01611    0.70663    0.49279    1.000
    N220     N        0.00669    0.69644    0.40897    1.000
    N221     N        0.02510    0.57582    0.52712    1.000
    N222     N        0.00681    0.62819    0.60893    1.000
    Si223    Si       0.00981    0.66750    0.51152    1.000
    N224     N        0.01552    0.67344    0.55344    1.000
    Si225    Si       0.03289    0.65000    0.58454    1.000
    N226     N        0.00025    0.71189    0.60853    1.000
    N227     N        0.99660    0.74320    0.54730    1.000
    Si228    Si       0.99037    0.70558    0.56730    1.000
    N229     N        0.03744    0.63539    0.49539    1.000
    N230     N        0.00260    0.53178    0.73710    1.000
    N231     N        0.02129    0.51220    0.67031    1.000
    N232     N        0.00680    0.61322    0.67843    1.000
    Si233    Si       0.03035    0.56630    0.73610    1.000
    Si234    Si       0.99813    0.62545    0.71822    1.000
    Si235    Si       0.99600    0.69888    0.69588    1.000
    N236     N        0.02973    0.71955    0.67591    1.000
    Si237    Si       0.02019    0.73903    0.63691    1.000
    N238     N        0.01149    0.66651    0.72271    1.000
    N239     N        0.00547    0.62015    0.81551    1.000
    Si240    Si       0.03750    0.62328    0.78654    1.000
    Si241    Si       0.00340    0.51210    0.77674    1.000
    N242     N        0.01988    0.60509    0.75054    1.000
    N243     N        0.99023    0.54384    0.80310    1.000
    N244     N        0.02575    0.72724    0.75868    1.000
    N245     N        0.01859    0.69198    0.83251    1.000
    Si246    Si       0.99636    0.65601    0.84216    1.000
    Si247    Si       0.99842    0.73040    0.82668    1.000
    Si248    Si       0.04053    0.68588    0.74672    1.000
    Si249    Si       0.02512    0.53782    0.97212    1.000
    N250     N        0.00696    0.61023    0.93512    1.000
    Si251    Si       0.04902    0.59929    0.93598    1.000
    N252     N        0.02543    0.75229    0.94251    1.000
    Si253    Si       0.99641    0.65149    0.92438    1.000
    N254     N        0.00908    0.65157    0.88381    1.000
    N255     N        0.02081    0.67855    0.94601    1.000
    Si256    Si       0.99945    0.71611    0.94784    1.000
    Si257    Si       0.00610    0.84288    0.09232    1.000
    N258     N        0.01291    0.79975    0.10560    1.000
    N259     N        0.02565    0.77694    0.04436    1.000
    Si260    Si       0.02743    0.87639    0.00563    1.000
    Si261    Si       0.00344    0.76442    0.08274    1.000
    N262     N        0.04590    0.83663    0.01077    1.000
    Si263    Si       0.00566    0.92461    0.04833    1.000
    N264     N        0.02276    0.95072    0.07924    1.000
    N265     N        0.00059    0.94546    0.00818    1.000
    N266     N        0.00181    0.88679    0.07033    1.000
    Si267    Si       0.03687    0.93941    0.12045    1.000
    N268     N        0.04627    0.90635    0.03171    1.000
    N269     N        0.00358    0.86031    0.13326    1.000
    Si270    Si       0.02874    0.80159    0.14687    1.000
    N271     N        0.99435    0.80913    0.17367    1.000
    N272     N        0.01101    0.92940    0.22318    1.000
    Si273    Si       0.99517    0.97126    0.22236    1.000
    Si274    Si       0.00521    0.91125    0.18413    1.000
    N275     N        0.04662    0.89396    0.17876    1.000
    N276     N        0.02643    0.00194    0.22119    1.000
    N277     N        0.00604    0.94188    0.14862    1.000
    N278     N        0.03300    0.81060    0.35672    1.000
    Si279    Si       0.00243    0.82166    0.32916    1.000
    N280     N        0.03360    0.87093    0.26096    1.000
    N281     N        0.00555    0.86471    0.32451    1.000
    N282     N        0.00164    0.81324    0.28764    1.000
    Si283    Si       0.01778    0.79231    0.25482    1.000
    Si284    Si       0.99447    0.86496    0.28077    1.000
    N285     N        0.04629    0.75798    0.26273    1.000
    Si286    Si       0.02118    0.88486    0.35964    1.000
    Si287    Si       0.99308    0.94582    0.28859    1.000
    N288     N        0.03723    0.94060    0.28545    1.000
    Si289    Si       0.00946    0.96933    0.36074    1.000
    Si290    Si       0.03970    0.91351    0.25139    1.000
    N291     N        0.00996    0.92552    0.36813    1.000
    Si292    Si       0.00493    0.79279    0.38421    1.000
    N293     N        0.01172    0.81636    0.42172    1.000
    Si294    Si       0.99946    0.86122    0.43168    1.000
    N295     N        0.00087    0.77322    0.48017    1.000
    N296     N        0.04360    0.87177    0.43608    1.000
    Si297    Si       0.03866    0.91573    0.44177    1.000
    N298     N        0.99375    0.91505    0.44264    1.000
    N299     N        0.03557    0.00410    0.42929    1.000
    N300     N        0.02450    0.80394    0.53850    1.000
    Si301    Si       0.03080    0.84240    0.55585    1.000
    N302     N        0.01882    0.84637    0.59866    1.000
    N303     N        0.00624    0.87119    0.53531    1.000
    N304     N        0.02332    0.77667    0.61302    1.000
    Si305    Si       0.00347    0.78049    0.56834    1.000
    Si306    Si       0.03666    0.78531    0.50219    1.000
    Si307    Si       0.01596    0.91244    0.54202    1.000
    N308     N        0.00258    0.94282    0.51504    1.000
    N309     N        0.04019    0.97419    0.59702    1.000
    N310     N        0.99968    0.91870    0.58248    1.000
    Si311    Si       0.99726    0.96012    0.59169    1.000
    N312     N        0.02755    0.00009    0.51001    1.000
    Si313    Si       0.04625    0.95879    0.51318    1.000
    Si314    Si       0.01908    0.81792    0.63264    1.000
    N315     N        0.03572    0.85922    0.72826    1.000
    N316     N        0.04700    0.81675    0.66655    1.000
    Si317    Si       0.99899    0.88225    0.72589    1.000
    Si318    Si       0.99284    0.97562    0.74398    1.000
    N319     N        0.01260    0.91092    0.69625    1.000
    N320     N        0.04493    0.93086    0.64678    1.000
    Si321    Si       0.04806    0.98612    0.71487    1.000
    N322     N        0.00422    0.98543    0.70110    1.000
    Si323    Si       0.00066    0.92338    0.65569    1.000
    Si324    Si       0.03471    0.83955    0.76792    1.000
    Si325    Si       0.01429    0.78455    0.85373    1.000
    N326     N        0.00594    0.82649    0.84320    1.000
    N327     N        0.02868    0.76355    0.81958    1.000
    Si328    Si       0.04445    0.76180    0.77871    1.000
    N329     N        0.99339    0.83600    0.77720    1.000
    N330     N        0.03366    0.98914    0.75582    1.000
    Si331    Si       0.01686    0.90392    0.80227    1.000
    N332     N        0.03082    0.94432    0.81062    1.000
    N333     N        0.99357    0.90711    0.76447    1.000
    N334     N        0.98819    0.88936    0.83076    1.000
    Si335    Si       0.02687    0.84013    0.87946    1.000
    N336     N        0.01299    0.87881    0.89744    1.000
    N337     N        0.03682    0.87535    0.96310    1.000
    N338     N        0.02099    0.79858    0.89754    1.000
    Si339    Si       0.99912    0.78885    0.93330    1.000
    Si340    Si       0.03886    0.83202    0.96783    1.000
    N341     N        0.99793    0.81531    0.96561    1.000
    Si342    Si       0.02305    0.96102    0.97516    1.000
    N343     N        0.01102    0.94089    0.93780    1.000
    Si344    Si       0.03185    0.90183    0.92767    1.000
    N345     N        0.01120    0.00298    0.97308    1.000
    N346     N        0.02595    0.98645    0.89152    1.000
    Si347    Si       0.99059    0.96467    0.90845    1.000
    Si348    Si       0.06787    0.06667    0.02594    1.000
    N349     N        0.09800    0.04316    0.11193    1.000
    N350     N        0.06327    0.08357    0.06484    1.000
    Si351    Si       0.05990    0.05862    0.09825    1.000
    N352     N        0.07163    0.02737    0.00904    1.000
    N353     N        0.09878    0.09066    0.00682    1.000
    Si354    Si       0.10349    0.00741    0.02798    1.000
    N355     N        0.08344    0.15043    0.07386    1.000
    N356     N        0.07303    0.21424    0.08545    1.000
    Si357    Si       0.08219    0.18152    0.04435    1.000
    Si358    Si       0.09886    0.24981    0.09832    1.000
    N359     N        0.08721    0.15870    0.00457    1.000
    N360     N        0.04682    0.20810    0.02532    1.000
    N361     N        0.09428    0.02486    0.23387    1.000
    N362     N        0.08682    0.09130    0.22208    1.000
    N363     N        0.06716    0.02981    0.17192    1.000
    Si364    Si       0.06079    0.12932    0.23209    1.000
    Si365    Si       0.10651    0.03579    0.15321    1.000
    N366     N        0.09618    0.23757    0.13969    1.000
    Si367    Si       0.07284    0.19855    0.12705    1.000
    N368     N        0.10114    0.16690    0.13777    1.000
    Si369    Si       0.06200    0.20026    0.22098    1.000
    N370     N        0.07693    0.16184    0.20856    1.000
    Si371    Si       0.09596    0.11274    0.29511    1.000
    Si372    Si       0.06017    0.10511    0.35232    1.000
    N373     N        0.05699    0.11992    0.27493    1.000
    N374     N        0.09986    0.07070    0.28984    1.000
    Si375    Si       0.07860    0.06119    0.25221    1.000
    N376     N        0.08776    0.12986    0.33319    1.000
    Si377    Si       0.09611    0.22260    0.28905    1.000
    Si378    Si       0.09877    0.17102    0.34492    1.000
    N379     N        0.05862    0.22364    0.30983    1.000
    N380     N        0.06913    0.19425    0.36818    1.000
    N381     N        0.09316    0.21817    0.24675    1.000
    Si382    Si       0.05337    0.23039    0.35208    1.000
    N383     N        0.08531    0.08101    0.37850    1.000
    N384     N        0.08059    0.04285    0.49044    1.000
    N385     N        0.07893    0.10325    0.44441    1.000
    Si386    Si       0.05414    0.09476    0.41058    1.000
    Si387    Si       0.10334    0.06973    0.46216    1.000
    N388     N        0.09042    0.16864    0.42836    1.000
    Si389    Si       0.08659    0.14320    0.46384    1.000
    Si390    Si       0.07784    0.24768    0.46785    1.000
    Si391    Si       0.06587    0.20086    0.41189    1.000
    N392     N        0.05243    0.16192    0.48618    1.000
    N393     N        0.07422    0.24106    0.42419    1.000
    Si394    Si       0.09489    0.11897    0.58139    1.000
    N395     N        0.07867    0.02940    0.56774    1.000
    Si396    Si       0.09152    0.01775    0.52498    1.000
    N397     N        0.05773    0.10123    0.59718    1.000
    Si398    Si       0.05278    0.01394    0.60001    1.000
    N399     N        0.07106    0.21147    0.54167    1.000
    N400     N        0.09151    0.14329    0.54529    1.000
    Si401    Si       0.05964    0.16963    0.52938    1.000
    Si402    Si       0.05014    0.23297    0.57201    1.000
    N403     N        0.06201    0.12539    0.73268    1.000
    Si404    Si       0.09567    0.11619    0.70558    1.000
    Si405    Si       0.06453    0.04430    0.67306    1.000
    N406     N        0.07467    0.02294    0.63630    1.000
    N407     N        0.08117    0.08306    0.68137    1.000
    N408     N        0.07911    0.01534    0.70356    1.000
    Si409    Si       0.08979    0.16221    0.64984    1.000
    N410     N        0.07558    0.20231    0.64932    1.000
    Si411    Si       0.07882    0.24596    0.64242    1.000
    N412     N        0.04676    0.14646    0.66304    1.000
    N413     N        0.08167    0.08857    0.83675    1.000
    N414     N        0.08965    0.06780    0.77097    1.000
    Si415    Si       0.06749    0.12748    0.82602    1.000
    Si416    Si       0.05313    0.08965    0.76024    1.000
    Si417    Si       0.05999    0.07421    0.87132    1.000
    Si418    Si       0.10585    0.00841    0.86416    1.000
    N419     N        0.04595    0.16147    0.84556    1.000
    N420     N        0.09269    0.14647    0.79703    1.000
    N421     N        0.07305    0.22625    0.84374    1.000
    Si422    Si       0.05884    0.14985    0.76973    1.000
    Si423    Si       0.07189    0.25074    0.75791    1.000
    N424     N        0.10176    0.22584    0.77538    1.000
    N425     N        0.04914    0.10920    0.89388    1.000
    Si426    Si       0.07930    0.03153    0.92720    1.000
    Si427    Si       0.08655    0.12233    0.98060    1.000
    N428     N        0.08079    0.03799    0.88318    1.000
    N429     N        0.04691    0.05421    0.94511    1.000
    N430     N        0.06560    0.20894    0.91195    1.000
    N431     N        0.09097    0.22057    0.97166    1.000
    Si432    Si       0.07335    0.24196    0.88404    1.000
    Si433    Si       0.05312    0.23094    0.98913    1.000
    Si434    Si       0.10338    0.21564    0.93060    1.000
    N435     N        0.07512    0.33280    0.03243    1.000
    Si436    Si       0.07440    0.29019    0.03593    1.000
    N437     N        0.07610    0.28237    0.08161    1.000
    N438     N        0.09405    0.37128    0.08682    1.000
    Si439    Si       0.10366    0.36486    0.04487    1.000
    Si440    Si       0.04943    0.37217    0.09545    1.000
    N441     N        0.04765    0.27203    0.00349    1.000
    N442     N        0.08681    0.44141    0.09600    1.000
    Si443    Si       0.06349    0.42213    0.00507    1.000
    N444     N        0.09345    0.40561    0.03149    1.000
    Si445    Si       0.08815    0.48566    0.08741    1.000
    N446     N        0.05279    0.49791    0.11671    1.000
    N447     N        0.08696    0.29283    0.18569    1.000
    Si448    Si       0.05260    0.36992    0.24295    1.000
    Si449    Si       0.06578    0.25954    0.17056    1.000
    N450     N        0.05981    0.45703    0.22921    1.000
    Si451    Si       0.08170    0.42807    0.20374    1.000
    Si452    Si       0.08071    0.41884    0.13138    1.000
    N453     N        0.06073    0.38977    0.20555    1.000
    Si454    Si       0.08004    0.48709    0.14805    1.000
    N455     N        0.07606    0.44685    0.16480    1.000
    N456     N        0.08416    0.36517    0.27060    1.000
    N457     N        0.06071    0.30325    0.29785    1.000
    Si458    Si       0.09219    0.28502    0.32388    1.000
    Si459    Si       0.09478    0.32731    0.28392    1.000
    N460     N        0.07121    0.26852    0.35845    1.000
    Si461    Si       0.09052    0.39318    0.30119    1.000
    N462     N        0.09060    0.49113    0.28464    1.000
    Si463    Si       0.06611    0.45687    0.27129    1.000
    N464     N        0.05618    0.39598    0.32820    1.000
    N465     N        0.09655    0.42680    0.27578    1.000
    Si466    Si       0.06088    0.39469    0.37160    1.000
    N467     N        0.06285    0.35452    0.38803    1.000
    N468     N        0.08711    0.28925    0.47889    1.000
    Si469    Si       0.06660    0.27898    0.40048    1.000
    Si470    Si       0.07967    0.37456    0.46994    1.000
    N471     N        0.09966    0.30318    0.40946    1.000
    Si472    Si       0.10406    0.34626    0.39811    1.000
    N473     N        0.07540    0.41443    0.45433    1.000
    Si474    Si       0.09721    0.42799    0.42054    1.000
    N475     N        0.08002    0.46320    0.39981    1.000
    N476     N        0.09331    0.48678    0.46748    1.000
    N477     N        0.10304    0.40456    0.38480    1.000
    N478     N        0.07413    0.31080    0.55132    1.000
    Si479    Si       0.08392    0.35264    0.54813    1.000
    Si480    Si       0.06381    0.30968    0.50930    1.000
    N481     N        0.07104    0.35382    0.50569    1.000
    Si482    Si       0.09774    0.28706    0.57932    1.000
    N483     N        0.07392    0.25765    0.60061    1.000
    N484     N        0.06664    0.38138    0.57664    1.000
    N485     N        0.08562    0.49036    0.55263    1.000
    N486     N        0.07097    0.43937    0.51035    1.000
    Si487    Si       0.07517    0.44816    0.55182    1.000
    Si488    Si       0.10104    0.40179    0.59727    1.000
    N489     N        0.05026    0.49654    0.61255    1.000
    Si490    Si       0.10520    0.49914    0.51437    1.000
    N491     N        0.08512    0.27364    0.72112    1.000
    N492     N        0.08208    0.33935    0.73800    1.000
    Si493    Si       0.07330    0.38136    0.72163    1.000
    Si494    Si       0.08168    0.47596    0.69147    1.000
    N495     N        0.04854    0.45109    0.67594    1.000
    N496     N        0.07107    0.49666    0.72761    1.000
    N497     N        0.09273    0.42912    0.62997    1.000
    Si498    Si       0.06060    0.41644    0.65515    1.000
    N499     N        0.07913    0.38566    0.67933    1.000
    N500     N        0.06071    0.28695    0.78178    1.000
    Si501    Si       0.08800    0.30301    0.81457    1.000
    N502     N        0.05344    0.29685    0.84068    1.000
    N503     N        0.10486    0.34234    0.80691    1.000
    Si504    Si       0.08207    0.43091    0.81104    1.000
    N505     N        0.09121    0.44972    0.77322    1.000
    N506     N        0.07504    0.46315    0.84070    1.000
    Si507    Si       0.07979    0.49120    0.76897    1.000
    Si508    Si       0.05400    0.49991    0.83211    1.000
    N509     N        0.06680    0.40441    0.87273    1.000
    N510     N        0.05652    0.27451    0.90871    1.000
    Si511    Si       0.09501    0.37520    0.89348    1.000
    N512     N        0.07223    0.33723    0.89167    1.000
    Si513    Si       0.07735    0.30838    0.92580    1.000
    N514     N        0.05115    0.32662    0.95589    1.000
    Si515    Si       0.05009    0.36973    0.95033    1.000
    N516     N        0.08785    0.38370    0.93574    1.000
    Si517    Si       0.10360    0.42216    0.94748    1.000
    Si518    Si       0.07972    0.44662    0.87971    1.000
    N519     N        0.07485    0.44526    0.96861    1.000
    N520     N        0.04416    0.38622    0.99113    1.000
    N521     N        0.04571    0.45847    0.90373    1.000
    Si522    Si       0.04593    0.46911    0.94563    1.000
    N523     N        0.07634    0.58982    0.04393    1.000
    N524     N        0.08184    0.52714    0.07086    1.000
    Si525    Si       0.06641    0.60689    0.08451    1.000
    N526     N        0.05424    0.57747    0.11486    1.000
    N527     N        0.10188    0.63075    0.09580    1.000
    Si528    Si       0.05292    0.59506    0.00654    1.000
    Si529    Si       0.10503    0.55899    0.05163    1.000
    N530     N        0.09729    0.67376    0.04175    1.000
    N531     N        0.06073    0.73791    0.07931    1.000
    Si532    Si       0.06710    0.67634    0.01043    1.000
    Si533    Si       0.09658    0.73632    0.10248    1.000
    N534     N        0.08731    0.75444    0.01231    1.000
    Si535    Si       0.05231    0.74192    0.03695    1.000
    N536     N        0.10097    0.69662    0.11908    1.000
    Si537    Si       0.09861    0.54754    0.20291    1.000
    Si538    Si       0.06451    0.62316    0.19860    1.000
    N539     N        0.07125    0.58093    0.20877    1.000
    N540     N        0.07667    0.51196    0.18423    1.000
    Si541    Si       0.08603    0.75804    0.16804    1.000
    N542     N        0.10087    0.72092    0.18221    1.000
    N543     N        0.09515    0.65063    0.18232    1.000
    Si544    Si       0.08537    0.68699    0.15944    1.000
    N545     N        0.04490    0.76162    0.15800    1.000
    Si546    Si       0.07732    0.52889    0.26862    1.000
    N547     N        0.06717    0.56193    0.29509    1.000
    Si548    Si       0.08773    0.59832    0.30346    1.000
    N549     N        0.09053    0.51940    0.35998    1.000
    N550     N        0.05851    0.63202    0.31079    1.000
    N551     N        0.10713    0.62170    0.27098    1.000
    Si552    Si       0.07109    0.64877    0.27234    1.000
    N553     N        0.07390    0.69224    0.27330    1.000
    Si554    Si       0.05139    0.72978    0.35614    1.000
    Si555    Si       0.09323    0.57265    0.42799    1.000
    N556     N        0.06910    0.53500    0.42724    1.000
    N557     N        0.05848    0.60228    0.42786    1.000
    Si558    Si       0.05493    0.52562    0.38402    1.000
    Si559    Si       0.05693    0.51347    0.46464    1.000
    Si560    Si       0.10678    0.56016    0.49736    1.000
    N561     N        0.06819    0.70028    0.38260    1.000
    N562     N        0.06262    0.73435    0.44723    1.000
    Si563    Si       0.05705    0.72037    0.48735    1.000
    N564     N        0.06624    0.66805    0.44526    1.000
    Si565    Si       0.10545    0.67810    0.46292    1.000
    Si566    Si       0.04879    0.70117    0.42170    1.000
    N567     N        0.07150    0.55121    0.57069    1.000
    Si568    Si       0.07041    0.58582    0.59522    1.000
    N569     N        0.09504    0.59949    0.50795    1.000
    N570     N        0.06115    0.61939    0.56691    1.000
    Si571    Si       0.05530    0.60683    0.52443    1.000
    N572     N        0.07045    0.53156    0.50391    1.000
    Si573    Si       0.08172    0.51243    0.58935    1.000
    Si574    Si       0.04559    0.53980    0.53960    1.000
    N575     N        0.09929    0.71966    0.56594    1.000
    Si576    Si       0.09247    0.70317    0.60564    1.000
    N577     N        0.06561    0.67000    0.60385    1.000
    Si578    Si       0.09907    0.64219    0.58433    1.000
    N579     N        0.09250    0.69467    0.49959    1.000
    N580     N        0.06390    0.75547    0.51172    1.000
    Si581    Si       0.04888    0.60032    0.67218    1.000
    N582     N        0.05318    0.56505    0.69795    1.000
    Si583    Si       0.08347    0.53643    0.71678    1.000
    N584     N        0.08657    0.51445    0.67015    1.000
    N585     N        0.05722    0.57493    0.63582    1.000
    Si586    Si       0.05222    0.53930    0.66138    1.000
    Si587    Si       0.07195    0.71779    0.67590    1.000
    N588     N        0.07551    0.63329    0.67779    1.000
    Si589    Si       0.09831    0.66218    0.69952    1.000
    Si590    Si       0.09729    0.72896    0.73370    1.000
    N591     N        0.08736    0.75294    0.69770    1.000
    N592     N        0.07060    0.73479    0.62969    1.000
    N593     N        0.07521    0.69355    0.72091    1.000
    N594     N        0.07262    0.60170    0.80132    1.000
    N595     N        0.07267    0.54094    0.83097    1.000
    Si596    Si       0.08814    0.56004    0.79593    1.000
    N597     N        0.06822    0.55433    0.75773    1.000
    Si598    Si       0.09892    0.62033    0.83258    1.000
    N599     N        0.08884    0.71381    0.83271    1.000
    N600     N        0.07220    0.64986    0.84665    1.000
    Si601    Si       0.06069    0.68301    0.81962    1.000
    N602     N        0.08686    0.74305    0.77193    1.000
    N603     N        0.05212    0.66440    0.78189    1.000
    Si604    Si       0.08343    0.55826    0.86899    1.000
    Si605    Si       0.07922    0.53749    0.93117    1.000
    N606     N        0.06225    0.57009    0.90636    1.000
    N607     N        0.05393    0.57025    0.97022    1.000
    N608     N        0.05109    0.51075    0.94856    1.000
    N609     N        0.10425    0.52709    0.89171    1.000
    N610     N        0.09375    0.75690    0.93853    1.000
    Si611    Si       0.10102    0.73591    0.97482    1.000
    Si612    Si       0.08919    0.72545    0.87459    1.000
    Si613    Si       0.06556    0.67757    0.93992    1.000
    Si614    Si       0.05234    0.65736    0.88447    1.000
    N615     N        0.06576    0.63794    0.92265    1.000
    N616     N        0.06873    0.69604    0.90010    1.000
    N617     N        0.08789    0.69419    0.97407    1.000
    N618     N        0.05896    0.63687    0.99753    1.000
    N619     N        0.09602    0.80413    0.05872    1.000
    Si620    Si       0.05379    0.81364    0.04709    1.000
    N621     N        0.04765    0.84676    0.07529    1.000
    Si622    Si       0.07763    0.93938    0.02342    1.000
    N623     N        0.08380    0.97438    0.04937    1.000
    Si624    Si       0.05292    0.98227    0.08042    1.000
    N625     N        0.05683    0.89764    0.11428    1.000
    Si626    Si       0.10466    0.89930    0.11704    1.000
    Si627    Si       0.05593    0.88859    0.07112    1.000
    N628     N        0.10052    0.90417    0.07413    1.000
    Si629    Si       0.04716    0.86751    0.14476    1.000
    N630     N        0.04832    0.81104    0.23184    1.000
    N631     N        0.09362    0.85469    0.22095    1.000
    Si632    Si       0.07298    0.82318    0.19852    1.000
    N633     N        0.06057    0.82907    0.15763    1.000
    Si634    Si       0.06819    0.00388    0.20803    1.000
    N635     N        0.07037    0.96768    0.11907    1.000
    Si636    Si       0.09595    0.96695    0.15428    1.000
    N637     N        0.08074    0.92013    0.23761    1.000
    Si638    Si       0.07770    0.92112    0.19504    1.000
    N639     N        0.07678    0.96527    0.19208    1.000
    N640     N        0.10276    0.92151    0.15718    1.000
    Si641    Si       0.09865    0.87041    0.33430    1.000
    Si642    Si       0.07295    0.84767    0.26135    1.000
    N643     N        0.09563    0.81149    0.27424    1.000
    Si644    Si       0.07352    0.79891    0.36410    1.000
    N645     N        0.09461    0.87781    0.29007    1.000
    N646     N        0.09920    0.82660    0.34219    1.000
    Si647    Si       0.08353    0.78036    0.24599    1.000
    N648     N        0.08255    0.75955    0.34780    1.000
    Si649    Si       0.06549    0.00560    0.34951    1.000
    N650     N        0.06631    0.88966    0.35667    1.000
    Si651    Si       0.07167    0.96095    0.30347    1.000
    N652     N        0.06042    0.96094    0.34461    1.000
    N653     N        0.08181    0.00556    0.30871    1.000
    Si654    Si       0.07243    0.92993    0.36961    1.000
    Si655    Si       0.05283    0.82943    0.42988    1.000
    N656     N        0.07531    0.80031    0.40759    1.000
    N657     N        0.06389    0.80377    0.46916    1.000
    Si658    Si       0.08096    0.77323    0.44161    1.000
    Si659    Si       0.10374    0.81331    0.48227    1.000
    N660     N        0.09275    0.00400    0.38272    1.000
    N661     N        0.10366    0.98320    0.44752    1.000
    Si662    Si       0.09659    0.95377    0.47888    1.000
    Si663    Si       0.07299    0.98434    0.41831    1.000
    N664     N        0.05899    0.94199    0.41049    1.000
    N665     N        0.05398    0.93800    0.47505    1.000
    N666     N        0.08284    0.78315    0.56963    1.000
    N667     N        0.07283    0.85530    0.55395    1.000
    Si668    Si       0.06978    0.77082    0.60781    1.000
    Si669    Si       0.09841    0.82080    0.55817    1.000
    Si670    Si       0.09988    0.75815    0.53881    1.000
    N671     N        0.10781    0.96536    0.61848    1.000
    Si672    Si       0.06869    0.94207    0.61296    1.000
    N673     N        0.08861    0.97548    0.51614    1.000
    N674     N        0.05836    0.92319    0.54068    1.000
    Si675    Si       0.08971    0.89592    0.55255    1.000
    N676     N        0.09632    0.91089    0.59396    1.000
    N677     N        0.08044    0.88261    0.68448    1.000
    N678     N        0.09774    0.79369    0.63334    1.000
    Si679    Si       0.08457    0.79212    0.67476    1.000
    Si680    Si       0.06008    0.84700    0.69712    1.000
    N681     N        0.10379    0.82489    0.70043    1.000
    N682     N        0.06721    0.94595    0.71728    1.000
    Si683    Si       0.05532    0.91724    0.68649    1.000
    Si684    Si       0.09741    0.94747    0.74779    1.000
    Si685    Si       0.08899    0.80114    0.85745    1.000
    Si686    Si       0.09767    0.80552    0.78048    1.000
    N687     N        0.05547    0.80379    0.76949    1.000
    N688     N        0.10243    0.78499    0.82200    1.000
    N689     N        0.04954    0.87420    0.79036    1.000
    Si690    Si       0.09205    0.88510    0.79324    1.000
    N691     N        0.09216    0.97115    0.78377    1.000
    N692     N        0.10376    0.90765    0.82712    1.000
    N693     N        0.08760    0.96951    0.86424    1.000
    Si694    Si       0.05114    0.97782    0.79708    1.000
    N695     N        0.07071    0.83740    0.87352    1.000
    N696     N        0.07228    0.76477    0.87856    1.000
    Si697    Si       0.09241    0.83579    0.91026    1.000
    Si698    Si       0.05693    0.77554    0.91992    1.000
    N699     N        0.06640    0.81478    0.93895    1.000
    Si700    Si       0.09873    0.96894    0.96599    1.000
    N701     N        0.06447    0.95554    0.98631    1.000
    N702     N        0.06931    0.92205    0.91168    1.000
    Si703    Si       0.06340    0.96417    0.89995    1.000
    N704     N        0.08156    0.98949    0.93160    1.000
    Si705    Si       0.13881    0.07914    0.01979    1.000
    Si706    Si       0.13147    0.05940    0.08877    1.000
    N707     N        0.12527    0.04471    0.04544    1.000
    N708     N        0.13159    0.10215    0.09615    1.000
    N709     N        0.16507    0.04742    0.11247    1.000
    N710     N        0.15333    0.16099    0.09013    1.000
    N711     N        0.13825    0.23784    0.08614    1.000
    Si712    Si       0.13522    0.24230    0.04245    1.000
    N713     N        0.11772    0.20354    0.03440    1.000
    Si714    Si       0.11598    0.14299    0.10271    1.000
    Si715    Si       0.16598    0.20441    0.09928    1.000
    N716     N        0.15184    0.07131    0.23457    1.000
    N717     N        0.12788    0.06959    0.16624    1.000
    Si718    Si       0.12530    0.09292    0.20372    1.000
    Si719    Si       0.13830    0.02747    0.24057    1.000
    Si720    Si       0.16493    0.07681    0.14506    1.000
    N721     N        0.13883    0.13389    0.19653    1.000
    Si722    Si       0.11132    0.16337    0.18172    1.000
    Si723    Si       0.13592    0.23634    0.15829    1.000
    Si724    Si       0.13425    0.21258    0.23153    1.000
    N725     N        0.15528    0.24908    0.23995    1.000
    N726     N        0.12613    0.20512    0.18984    1.000
    N727     N        0.13613    0.03948    0.34498    1.000
    N728     N        0.13623    0.12420    0.28388    1.000
    Si729    Si       0.16159    0.09541    0.26959    1.000
    Si730    Si       0.11445    0.03302    0.30773    1.000
    N731     N        0.14120    0.01184    0.27987    1.000
    Si732    Si       0.14845    0.16667    0.28733    1.000
    N733     N        0.11655    0.18667    0.30770    1.000
    N734     N        0.15336    0.17762    0.24439    1.000
    N735     N        0.15707    0.08792    0.37511    1.000
    N736     N        0.13424    0.08843    0.48674    1.000
    N737     N        0.12392    0.05013    0.42706    1.000
    Si738    Si       0.15413    0.12299    0.46758    1.000
    Si739    Si       0.12109    0.05898    0.38235    1.000
    Si740    Si       0.13702    0.01048    0.43981    1.000
    N741     N        0.14939    0.12993    0.42486    1.000
    N742     N        0.13412    0.17093    0.37047    1.000
    N743     N        0.15096    0.19926    0.43217    1.000
    Si744    Si       0.12977    0.16573    0.41338    1.000
    Si745    Si       0.14005    0.19670    0.47561    1.000
    N746     N        0.10932    0.22462    0.48780    1.000
    N747     N        0.12514    0.15562    0.48184    1.000
    Si748    Si       0.14634    0.08998    0.52919    1.000
    N749     N        0.13345    0.02937    0.53469    1.000
    N750     N        0.14211    0.03042    0.60619    1.000
    Si751    Si       0.11906    0.04464    0.57272    1.000
    N752     N        0.12217    0.08705    0.56525    1.000
    N753     N        0.16098    0.13243    0.53587    1.000
    N754     N        0.13962    0.19511    0.53992    1.000
    Si755    Si       0.12725    0.15608    0.52617    1.000
    Si756    Si       0.10916    0.22775    0.53219    1.000
    N757     N        0.10858    0.14287    0.61576    1.000
    N758     N        0.15659    0.10428    0.65636    1.000
    N759     N        0.13223    0.10234    0.72735    1.000
    N760     N        0.14720    0.03793    0.72723    1.000
    Si761    Si       0.16449    0.10268    0.69815    1.000
    N762     N        0.13491    0.20812    0.71078    1.000
    N763     N        0.16289    0.17888    0.64571    1.000
    N764     N        0.11409    0.14989    0.68325    1.000
    Si765    Si       0.15085    0.17131    0.68864    1.000
    Si766    Si       0.14907    0.13927    0.63098    1.000
    Si767    Si       0.14256    0.24417    0.68761    1.000
    N768     N        0.15183    0.07101    0.79186    1.000
    Si769    Si       0.13067    0.06770    0.75156    1.000
    N770     N        0.11095    0.02462    0.82322    1.000
    Si771    Si       0.10815    0.06499    0.80996    1.000
    N772     N        0.16115    0.13595    0.82456    1.000
    Si773    Si       0.13163    0.16039    0.80626    1.000
    N774     N        0.13301    0.19707    0.83261    1.000
    N775     N        0.14962    0.17195    0.76667    1.000
    Si776    Si       0.13742    0.21181    0.75496    1.000
    Si777    Si       0.10994    0.23004    0.81726    1.000
    Si778    Si       0.15437    0.02661    0.92342    1.000
    Si779    Si       0.14516    0.08308    0.94788    1.000
    N780     N        0.11977    0.04508    0.93966    1.000
    N781     N        0.12018    0.11757    0.95050    1.000
    N782     N        0.16466    0.06972    0.98498    1.000
    Si783    Si       0.14119    0.15114    0.93626    1.000
    N784     N        0.11874    0.24124    0.89502    1.000
    N785     N        0.14910    0.16959    0.97639    1.000
    Si786    Si       0.11543    0.18985    0.99400    1.000
    Si787    Si       0.13568    0.20436    0.87814    1.000
    N788     N        0.14974    0.24417    0.95431    1.000
    N789     N        0.12385    0.18118    0.91463    1.000
    N790     N        0.14548    0.36257    0.03435    1.000
    N791     N        0.11249    0.27166    0.02109    1.000
    Si792    Si       0.12446    0.36488    0.11699    1.000
    Si793    Si       0.14260    0.49854    0.03766    1.000
    N794     N        0.15318    0.42272    0.06764    1.000
    Si795    Si       0.11251    0.43232    0.05944    1.000
    N796     N        0.15457    0.48736    0.99743    1.000
    N797     N        0.10835    0.47369    0.04787    1.000
    Si798    Si       0.15081    0.33803    0.23349    1.000
    N799     N        0.14956    0.27445    0.17516    1.000
    Si800    Si       0.12351    0.30987    0.17227    1.000
    N801     N        0.13134    0.32443    0.13341    1.000
    N802     N        0.13258    0.34770    0.19608    1.000
    N803     N        0.12302    0.41618    0.21478    1.000
    N804     N        0.11679    0.49455    0.12584    1.000
    Si805    Si       0.13656    0.38834    0.18421    1.000
    N806     N        0.11379    0.39497    0.14820    1.000
    Si807    Si       0.14479    0.27649    0.27193    1.000
    Si808    Si       0.14131    0.35219    0.33502    1.000
    N809     N        0.12427    0.31116    0.25704    1.000
    N810     N        0.15572    0.37443    0.25848    1.000
    N811     N        0.11322    0.32279    0.32363    1.000
    N812     N        0.11663    0.25934    0.29781    1.000
    N813     N        0.12485    0.38946    0.32411    1.000
    Si814    Si       0.13244    0.41866    0.35573    1.000
    N815     N        0.12454    0.45888    0.33866    1.000
    Si816    Si       0.12884    0.47393    0.29659    1.000
    Si817    Si       0.13560    0.41295    0.25675    1.000
    N818     N        0.15595    0.44842    0.27299    1.000
    N819     N        0.14279    0.35166    0.37907    1.000
    N820     N        0.15344    0.31379    0.45288    1.000
    Si821    Si       0.14924    0.35834    0.46010    1.000
    Si822    Si       0.11099    0.30726    0.45065    1.000
    N823     N        0.10660    0.35285    0.44505    1.000
    Si824    Si       0.10828    0.48263    0.37162    1.000
    Si825    Si       0.10778    0.43677    0.48419    1.000
    N826     N        0.15981    0.50171    0.46153    1.000
    N827     N        0.13204    0.44088    0.44458    1.000
    Si828    Si       0.12590    0.48412    0.44085    1.000
    N829     N        0.13870    0.49436    0.40105    1.000
    N830     N        0.12353    0.39263    0.49154    1.000
    Si831    Si       0.14140    0.34491    0.59637    1.000
    N832     N        0.12675    0.35648    0.55602    1.000
    N833     N        0.12884    0.30432    0.60499    1.000
    N834     N        0.12357    0.26289    0.55323    1.000
    Si835    Si       0.14857    0.37676    0.52450    1.000
    Si836    Si       0.14768    0.44349    0.54870    1.000
    N837     N        0.13389    0.46237    0.51178    1.000
    Si838    Si       0.15858    0.48418    0.61573    1.000
    N839     N        0.11235    0.42981    0.56780    1.000
    N840     N        0.12081    0.25394    0.65282    1.000
    N841     N        0.11697    0.37090    0.62079    1.000
    N842     N        0.12918    0.33744    0.68604    1.000
    Si843    Si       0.15163    0.27912    0.63254    1.000
    N844     N        0.14692    0.28137    0.70915    1.000
    Si845    Si       0.11986    0.37516    0.66488    1.000
    Si846    Si       0.11209    0.30927    0.71861    1.000
    N847     N        0.10902    0.39472    0.74588    1.000
    N848     N        0.15133    0.40373    0.68135    1.000
    Si849    Si       0.15283    0.44746    0.67443    1.000
    N850     N        0.11778    0.45381    0.70066    1.000
    Si851    Si       0.11870    0.43772    0.74243    1.000
    N852     N        0.15193    0.49199    0.66079    1.000
    N853     N        0.11799    0.27366    0.82251    1.000
    Si854    Si       0.15371    0.28886    0.84274    1.000
    N855     N        0.14050    0.32145    0.75426    1.000
    Si856    Si       0.13344    0.36888    0.82968    1.000
    Si857    Si       0.11427    0.35701    0.76529    1.000
    N858     N        0.15459    0.37655    0.78920    1.000
    N859     N        0.16360    0.33187    0.83055    1.000
    N860     N        0.12019    0.41355    0.82266    1.000
    Si861    Si       0.15726    0.41901    0.79656    1.000
    N862     N        0.15874    0.44265    0.75989    1.000
    N863     N        0.13212    0.36961    0.87188    1.000
    Si864    Si       0.14421    0.27255    0.91581    1.000
    Si865    Si       0.12968    0.27488    0.98000    1.000
    N866     N        0.14372    0.30235    0.88331    1.000
    N867     N        0.11427    0.29325    0.94357    1.000
    N868     N        0.15933    0.30293    0.99124    1.000
    Si869    Si       0.16554    0.34045    0.87546    1.000
    N870     N        0.14471    0.42430    0.96169    1.000
    N871     N        0.11507    0.44045    0.90729    1.000
    Si872    Si       0.15641    0.43560    0.92027    1.000
    N873     N        0.13207    0.53855    0.02443    1.000
    N874     N        0.13325    0.57478    0.08150    1.000
    Si875    Si       0.13758    0.60785    0.10810    1.000
    N876     N        0.15080    0.61748    0.02674    1.000
    N877     N        0.12538    0.74050    0.07244    1.000
    Si878    Si       0.13670    0.65926    0.03067    1.000
    N879     N        0.15173    0.67768    0.06904    1.000
    Si880    Si       0.10879    0.67242    0.08439    1.000
    N881     N        0.15678    0.67153    0.99495    1.000
    Si882    Si       0.16316    0.72084    0.07630    1.000
    Si883    Si       0.16094    0.58267    0.18046    1.000
    N884     N        0.14450    0.61159    0.15172    1.000
    N885     N        0.13514    0.54752    0.17791    1.000
    N886     N        0.14369    0.60946    0.21414    1.000
    Si887    Si       0.14685    0.51272    0.15207    1.000
    N888     N        0.11385    0.53910    0.24296    1.000
    Si889    Si       0.13862    0.64132    0.18390    1.000
    N890     N        0.13582    0.69017    0.23988    1.000
    N891     N        0.16194    0.75245    0.21424    1.000
    Si892    Si       0.12846    0.72611    0.21515    1.000
    Si893    Si       0.15316    0.53744    0.26265    1.000
    Si894    Si       0.14717    0.61251    0.25644    1.000
    Si895    Si       0.11872    0.55307    0.35617    1.000
    N896     N        0.11799    0.59181    0.33335    1.000
    N897     N        0.16007    0.53760    0.35556    1.000
    Si898    Si       0.13034    0.61379    0.36851    1.000
    N899     N        0.15606    0.51081    0.29612    1.000
    N900     N        0.12875    0.70928    0.31206    1.000
    Si901    Si       0.12473    0.74293    0.34250    1.000
    Si902    Si       0.14853    0.68528    0.34366    1.000
    Si903    Si       0.11306    0.70849    0.27121    1.000
    N904     N        0.12282    0.65603    0.36585    1.000
    N905     N        0.10966    0.74727    0.25194    1.000
    N906     N        0.12263    0.56189    0.45845    1.000
    N907     N        0.11366    0.58055    0.39147    1.000
    Si908    Si       0.16259    0.54447    0.45587    1.000
    Si909    Si       0.16121    0.71880    0.41569    1.000
    N910     N        0.13881    0.65257    0.47694    1.000
    N911     N        0.12234    0.70204    0.43070    1.000
    Si912    Si       0.10836    0.69003    0.39031    1.000
    N913     N        0.14068    0.71771    0.37435    1.000
    N914     N        0.13426    0.53446    0.51749    1.000
    Si915    Si       0.12799    0.62864    0.51270    1.000
    N916     N        0.16219    0.60401    0.52828    1.000
    N917     N        0.11972    0.51024    0.60953    1.000
    N918     N        0.11050    0.60585    0.60573    1.000
    N919     N        0.12000    0.65407    0.54699    1.000
    N920     N        0.12588    0.67418    0.60585    1.000
    N921     N        0.13600    0.74158    0.51804    1.000
    Si922    Si       0.12125    0.69826    0.53391    1.000
    Si923    Si       0.16382    0.66909    0.57978    1.000
    N924     N        0.16616    0.70041    0.55238    1.000
    Si925    Si       0.14221    0.59916    0.63410    1.000
    Si926    Si       0.12354    0.52430    0.64986    1.000
    N927     N        0.12713    0.54102    0.72106    1.000
    N928     N        0.14118    0.56164    0.65791    1.000
    Si929    Si       0.16167    0.55424    0.69798    1.000
    Si930    Si       0.16081    0.63114    0.70019    1.000
    N931     N        0.14828    0.63319    0.65952    1.000
    N932     N        0.13922    0.71666    0.72919    1.000
    Si933    Si       0.14877    0.67656    0.64549    1.000
    N934     N        0.11279    0.69497    0.67159    1.000
    Si935    Si       0.15801    0.67878    0.74161    1.000
    Si936    Si       0.13832    0.72827    0.68623    1.000
    N937     N        0.12978    0.64748    0.72652    1.000
    N938     N        0.13017    0.57407    0.78923    1.000
    Si939    Si       0.13988    0.54106    0.76287    1.000
    N940     N        0.14333    0.62998    0.82607    1.000
    Si941    Si       0.16228    0.59452    0.80964    1.000
    N942     N        0.11331    0.51409    0.78120    1.000
    N943     N        0.11079    0.59115    0.86425    1.000
    N944     N        0.15042    0.74036    0.79814    1.000
    Si945    Si       0.10923    0.74484    0.80980    1.000
    Si946    Si       0.15170    0.59637    0.87582    1.000
    N947     N        0.15492    0.57496    0.91432    1.000
    Si948    Si       0.14096    0.53381    0.91175    1.000
    Si949    Si       0.14540    0.52745    0.98464    1.000
    N950     N        0.11702    0.53030    0.95076    1.000
    N951     N        0.13135    0.73467    0.88408    1.000
    N952     N        0.14487    0.73928    0.97681    1.000
    N953     N        0.15323    0.78695    0.02706    1.000
    N954     N        0.13953    0.85459    0.04579    1.000
    Si955    Si       0.11649    0.76844    0.04099    1.000
    N956     N        0.15368    0.80840    0.09962    1.000
    Si957    Si       0.12183    0.83176    0.08071    1.000
    Si958    Si       0.15942    0.82847    0.01708    1.000
    N959     N        0.11720    0.85601    0.11737    1.000
    Si960    Si       0.13454    0.89840    0.04880    1.000
    N961     N        0.11555    0.91603    0.01330    1.000
    N962     N        0.15232    0.91534    0.11980    1.000
    Si963    Si       0.15345    0.77398    0.12756    1.000
    Si964    Si       0.14577    0.79126    0.20118    1.000
    Si965    Si       0.13566    0.86043    0.21770    1.000
    N966     N        0.14642    0.87146    0.17584    1.000
    N967     N        0.15681    0.82368    0.22845    1.000
    Si968    Si       0.15273    0.84212    0.14212    1.000
    N969     N        0.11115    0.76265    0.13290    1.000
    N970     N        0.09940    0.78585    0.20145    1.000
    Si971    Si       0.14590    0.91183    0.16324    1.000
    N972     N        0.14354    0.89737    0.23953    1.000
    N973     N        0.12750    0.99839    0.15940    1.000
    Si974    Si       0.12206    0.81064    0.30950    1.000
    N975     N        0.14543    0.77712    0.32636    1.000
    N976     N        0.15974    0.83532    0.29960    1.000
    N977     N        0.13776    0.88274    0.34616    1.000
    Si978    Si       0.14860    0.97075    0.29274    1.000
    N979     N        0.15512    0.97603    0.33716    1.000
    Si980    Si       0.11208    0.91033    0.26444    1.000
    N981     N        0.11120    0.94509    0.29132    1.000
    N982     N        0.11069    0.85468    0.47308    1.000
    N983     N        0.12190    0.78345    0.45549    1.000
    Si984    Si       0.13038    0.98300    0.37196    1.000
    N985     N        0.14323    0.88460    0.41715    1.000
    Si986    Si       0.14346    0.90716    0.38249    1.000
    Si987    Si       0.13692    0.88625    0.45959    1.000
    N988     N        0.11557    0.94028    0.37813    1.000
    N989     N        0.15826    0.99117    0.40675    1.000
    N990     N        0.12602    0.92420    0.48063    1.000
    N991     N        0.13249    0.83295    0.58112    1.000
    Si992    Si       0.15690    0.86127    0.55783    1.000
    N993     N        0.11598    0.80386    0.52268    1.000
    Si994    Si       0.15966    0.79670    0.52569    1.000
    N995     N        0.13075    0.89040    0.54016    1.000
    Si996    Si       0.14280    0.92805    0.52097    1.000
    N997     N        0.14878    0.95278    0.56119    1.000
    Si998    Si       0.13192    0.93680    0.59800    1.000
    Si999    Si       0.13248    0.81892    0.62103    1.000
    Si1000   Si       0.13926    0.80137    0.71531    1.000
    N1001    N        0.14939    0.77063    0.68769    1.000
    N1002    N        0.13591    0.85597    0.64615    1.000
    Si1003   Si       0.12058    0.86595    0.68528    1.000
    N1004    N        0.15012    0.88332    0.71077    1.000
    Si1005   Si       0.12179    0.00741    0.70729    1.000
    N1006    N        0.13717    0.00271    0.66789    1.000
    Si1007   Si       0.11447    0.00611    0.63175    1.000
    N1008    N        0.12913    0.96877    0.72597    1.000
    Si1009   Si       0.15135    0.84105    0.80825    1.000
    N1010    N        0.13252    0.79400    0.75562    1.000
    N1011    N        0.15115    0.85399    0.85033    1.000
    N1012    N        0.10958    0.84516    0.79380    1.000
    Si1013   Si       0.12537    0.98793    0.80399    1.000
    N1014    N        0.14644    0.96419    0.83436    1.000
    N1015    N        0.15865    0.99570    0.77698    1.000
    Si1016   Si       0.15404    0.89821    0.75226    1.000
    Si1017   Si       0.11755    0.93704    0.85279    1.000
    N1018    N        0.11247    0.90873    0.75979    1.000
    Si1019   Si       0.12759    0.76859    0.91083    1.000
    Si1020   Si       0.15224    0.85721    0.94779    1.000
    N1021    N        0.12172    0.80861    0.89120    1.000
    N1022    N        0.15046    0.82350    0.97454    1.000
    N1023    N        0.11373    0.86878    0.92941    1.000
    Si1024   Si       0.16293    0.78105    0.96970    1.000
    Si1025   Si       0.11190    0.91069    0.91836    1.000
    N1026    N        0.13893    0.91751    0.88542    1.000
    Si1027   Si       0.14684    0.92468    0.98498    1.000
    N1028    N        0.12771    0.99073    0.99433    1.000
    N1029    N        0.12356    0.93684    0.95126    1.000
    N1030    N        0.14472    0.00900    0.88311    1.000
    Si1031   Si       0.20464    0.12099    0.03402    1.000
    N1032    N        0.20008    0.01628    0.01056    1.000
    N1033    N        0.21629    0.12667    0.07483    1.000
    N1034    N        0.22357    0.02146    0.08654    1.000
    Si1035   Si       0.17051    0.12077    0.08490    1.000
    N1036    N        0.16283    0.10852    0.03858    1.000
    Si1037   Si       0.22442    0.00513    0.04441    1.000
    N1038    N        0.20467    0.21495    0.08120    1.000
    Si1039   Si       0.21078    0.22743    0.04072    1.000
    N1040    N        0.17599    0.24625    0.02803    1.000
    N1041    N        0.21686    0.15261    0.00408    1.000
    N1042    N        0.19353    0.06648    0.17781    1.000
    N1043    N        0.18648    0.10975    0.12716    1.000
    N1044    N        0.18847    0.11957    0.24224    1.000
    Si1045   Si       0.19388    0.08225    0.21897    1.000
    N1046    N        0.22346    0.06396    0.24240    1.000
    Si1047   Si       0.19948    0.20323    0.16844    1.000
    Si1048   Si       0.17403    0.15174    0.21700    1.000
    N1049    N        0.20215    0.23071    0.20349    1.000
    N1050    N        0.20455    0.16366    0.19044    1.000
    N1051    N        0.16938    0.21513    0.14144    1.000
    N1052    N        0.21098    0.05418    0.35802    1.000
    N1053    N        0.17893    0.06939    0.29927    1.000
    Si1054   Si       0.21518    0.05137    0.28192    1.000
    Si1055   Si       0.17294    0.06532    0.34105    1.000
    N1056    N        0.21593    0.00831    0.27698    1.000
    Si1057   Si       0.21774    0.24845    0.36079    1.000
    N1058    N        0.18235    0.18033    0.31427    1.000
    Si1059   Si       0.17506    0.18308    0.35711    1.000
    Si1060   Si       0.22333    0.19383    0.30299    1.000
    Si1061   Si       0.18107    0.11398    0.39877    1.000
    N1062    N        0.21158    0.08946    0.41958    1.000
    N1063    N        0.22287    0.02309    0.43078    1.000
    N1064    N        0.16523    0.01556    0.47166    1.000
    N1065    N        0.19688    0.14813    0.37718    1.000
    N1066    N        0.19635    0.13417    0.47042    1.000
    Si1067   Si       0.21292    0.17366    0.47147    1.000
    N1068    N        0.19959    0.25503    0.44164    1.000
    N1069    N        0.18061    0.19752    0.49170    1.000
    Si1070   Si       0.18703    0.21980    0.42086    1.000
    N1071    N        0.18704    0.21945    0.37700    1.000
    N1072    N        0.22136    0.19707    0.43529    1.000
    N1073    N        0.18413    0.06656    0.52883    1.000
    N1074    N        0.20152    0.06302    0.59807    1.000
    Si1075   Si       0.21647    0.07406    0.55596    1.000
    Si1076   Si       0.17170    0.02775    0.51547    1.000
    Si1077   Si       0.18613    0.02694    0.61637    1.000
    N1078    N        0.17929    0.12660    0.60275    1.000
    Si1079   Si       0.19104    0.14097    0.56487    1.000
    Si1080   Si       0.18338    0.20209    0.53661    1.000
    N1081    N        0.19205    0.24452    0.54319    1.000
    N1082    N        0.20684    0.18041    0.56359    1.000
    N1083    N        0.16877    0.24588    0.61116    1.000
    Si1084   Si       0.19299    0.09210    0.62803    1.000
    Si1085   Si       0.19357    0.03394    0.72385    1.000
    N1086    N        0.19234    0.04257    0.65771    1.000
    N1087    N        0.19914    0.07851    0.71351    1.000
    N1088    N        0.22151    0.10387    0.65841    1.000
    Si1089   Si       0.22736    0.06515    0.67587    1.000
    Si1090   Si       0.22842    0.09311    0.74387    1.000
    Si1091   Si       0.22112    0.13634    0.68659    1.000
    Si1092   Si       0.18641    0.21403    0.63595    1.000
    N1093    N        0.18062    0.14335    0.70466    1.000
    Si1094   Si       0.21897    0.25300    0.69475    1.000
    N1095    N        0.18545    0.23278    0.67774    1.000
    Si1096   Si       0.18282    0.10103    0.80671    1.000
    N1097    N        0.20289    0.11965    0.77134    1.000
    N1098    N        0.21207    0.04007    0.76654    1.000
    N1099    N        0.18915    0.02197    0.83154    1.000
    N1100    N        0.21359    0.08627    0.83374    1.000
    Si1101   Si       0.17784    0.03190    0.79210    1.000
    Si1102   Si       0.22321    0.04578    0.84600    1.000
    N1103    N        0.20171    0.19168    0.81241    1.000
    Si1104   Si       0.20788    0.21662    0.77556    1.000
    Si1105   Si       0.17834    0.17132    0.84230    1.000
    N1106    N        0.17116    0.23942    0.76213    1.000
    N1107    N        0.21907    0.15365    0.85719    1.000
    Si1108   Si       0.18606    0.15385    0.74916    1.000
    N1109    N        0.21559    0.18465    0.74716    1.000
    N1110    N        0.17237    0.06624    0.91757    1.000
    Si1111   Si       0.21580    0.07065    0.91683    1.000
    Si1112   Si       0.20652    0.05648    0.99373    1.000
    N1113    N        0.22936    0.10543    0.89836    1.000
    Si1114   Si       0.21584    0.14785    0.90326    1.000
    N1115    N        0.20814    0.19962    0.95410    1.000
    N1116    N        0.17762    0.20148    0.87420    1.000
    Si1117   Si       0.20107    0.23990    0.87497    1.000
    N1118    N        0.18865    0.25792    0.91049    1.000
    Si1119   Si       0.19205    0.23924    0.94877    1.000
    N1120    N        0.18361    0.14393    0.93084    1.000
    Si1121   Si       0.19219    0.16353    0.97039    1.000
    N1122    N        0.18789    0.29665    0.08984    1.000
    N1123    N        0.20329    0.32584    0.02482    1.000
    Si1124   Si       0.19564    0.28328    0.01220    1.000
    Si1125   Si       0.16929    0.34283    0.00347    1.000
    Si1126   Si       0.17153    0.32372    0.11744    1.000
    N1127    N        0.16766    0.36762    0.10343    1.000
    Si1128   Si       0.17098    0.38401    0.06159    1.000
    N1129    N        0.21109    0.39205    0.04433    1.000
    Si1130   Si       0.18453    0.45158    0.08001    1.000
    N1131    N        0.17061    0.49309    0.07098    1.000
    N1132    N        0.22724    0.45720    0.06506    1.000
    N1133    N        0.18278    0.30878    0.22597    1.000
    N1134    N        0.19934    0.33615    0.14960    1.000
    Si1135   Si       0.17912    0.26911    0.20833    1.000
    Si1136   Si       0.19533    0.38000    0.13687    1.000
    N1137    N        0.19584    0.43995    0.12152    1.000
    N1138    N        0.21510    0.47273    0.23361    1.000
    Si1139   Si       0.18700    0.44208    0.16575    1.000
    N1140    N        0.16592    0.48136    0.17888    1.000
    Si1141   Si       0.19285    0.50079    0.20713    1.000
    N1142    N        0.17735    0.39997    0.17046    1.000
    Si1143   Si       0.19846    0.30956    0.32658    1.000
    N1144    N        0.18050    0.34870    0.31863    1.000
    N1145    N        0.18134    0.29020    0.29048    1.000
    Si1146   Si       0.21043    0.30361    0.26050    1.000
    Si1147   Si       0.19301    0.37315    0.28277    1.000
    N1148    N        0.20371    0.29189    0.36693    1.000
    N1149    N        0.22158    0.34633    0.26516    1.000
    Si1150   Si       0.19974    0.45432    0.27178    1.000
    N1151    N        0.21353    0.41293    0.27691    1.000
    N1152    N        0.21527    0.47918    0.30375    1.000
    N1153    N        0.19592    0.48555    0.36913    1.000
    N1154    N        0.21687    0.36143    0.37761    1.000
    Si1155   Si       0.19291    0.29610    0.45352    1.000
    Si1156   Si       0.17830    0.37689    0.39256    1.000
    N1157    N        0.22160    0.32483    0.43483    1.000
    N1158    N        0.16930    0.38561    0.43369    1.000
    N1159    N        0.18963    0.44268    0.47920    1.000
    Si1160   Si       0.17416    0.42662    0.44239    1.000
    N1161    N        0.17365    0.41540    0.37123    1.000
    Si1162   Si       0.20566    0.44484    0.37959    1.000
    N1163    N        0.21255    0.43481    0.42109    1.000
    Si1164   Si       0.17127    0.47939    0.49627    1.000
    N1165    N        0.18102    0.36368    0.60500    1.000
    Si1166   Si       0.20855    0.33680    0.58708    1.000
    Si1167   Si       0.21052    0.33481    0.51257    1.000
    N1168    N        0.18435    0.30464    0.57383    1.000
    Si1169   Si       0.16448    0.26505    0.56916    1.000
    N1170    N        0.22115    0.35351    0.55011    1.000
    N1171    N        0.20537    0.29574    0.49737    1.000
    N1172    N        0.17679    0.35742    0.49696    1.000
    N1173    N        0.16420    0.47357    0.57456    1.000
    Si1174   Si       0.21434    0.39658    0.55114    1.000
    Si1175   Si       0.20084    0.49809    0.56381    1.000
    N1176    N        0.20674    0.48153    0.52335    1.000
    N1177    N        0.17100    0.40814    0.54341    1.000
    N1178    N        0.18342    0.30322    0.65200    1.000
    N1179    N        0.19449    0.34822    0.70641    1.000
    N1180    N        0.20504    0.28866    0.71737    1.000
    Si1181   Si       0.16945    0.31560    0.69294    1.000
    Si1182   Si       0.18979    0.38824    0.69416    1.000
    N1183    N        0.20748    0.41033    0.72802    1.000
    Si1184   Si       0.19494    0.45113    0.73473    1.000
    N1185    N        0.21556    0.39047    0.65903    1.000
    N1186    N        0.19081    0.46354    0.69358    1.000
    Si1187   Si       0.19732    0.49945    0.66628    1.000
    N1188    N        0.16980    0.44019    0.63149    1.000
    Si1189   Si       0.19519    0.40299    0.62228    1.000
    N1190    N        0.19548    0.30091    0.78066    1.000
    Si1191   Si       0.21850    0.27954    0.81111    1.000
    Si1192   Si       0.16893    0.33582    0.78731    1.000
    N1193    N        0.18969    0.26593    0.84080    1.000
    Si1194   Si       0.17190    0.28178    0.74833    1.000
    N1195    N        0.21896    0.47746    0.76033    1.000
    Si1196   Si       0.21493    0.46547    0.83734    1.000
    N1197    N        0.18673    0.43770    0.82105    1.000
    N1198    N        0.19570    0.50423    0.82539    1.000
    N1199    N        0.19293    0.36058    0.96979    1.000
    Si1200   Si       0.20134    0.37382    0.92868    1.000
    N1201    N        0.20192    0.33975    0.89698    1.000
    N1202    N        0.21557    0.26612    0.97743    1.000
    Si1203   Si       0.20185    0.49322    0.91075    1.000
    N1204    N        0.21738    0.46773    0.88014    1.000
    N1205    N        0.21350    0.44804    0.99331    1.000
    N1206    N        0.18401    0.40629    0.90782    1.000
    Si1207   Si       0.17245    0.45531    0.97566    1.000
    N1208    N        0.17466    0.47038    0.93474    1.000
    N1209    N        0.19657    0.55557    0.06248    1.000
    Si1210   Si       0.19574    0.52272    0.08866    1.000
    N1211    N        0.17524    0.61968    0.08802    1.000
    N1212    N        0.21031    0.59915    0.01931    1.000
    Si1213   Si       0.16967    0.58947    0.05610    1.000
    Si1214   Si       0.18275    0.63337    0.99962    1.000
    Si1215   Si       0.19300    0.65645    0.07304    1.000
    N1216    N        0.18973    0.72755    0.04322    1.000
    N1217    N        0.17604    0.73920    0.11508    1.000
    N1218    N        0.21392    0.68689    0.09881    1.000
    N1219    N        0.21161    0.66001    0.03426    1.000
    Si1220   Si       0.21757    0.70221    0.02187    1.000
    Si1221   Si       0.21566    0.72278    0.12467    1.000
    N1222    N        0.18008    0.53055    0.13019    1.000
    N1223    N        0.20254    0.58611    0.19272    1.000
    N1224    N        0.18208    0.53231    0.23100    1.000
    Si1225   Si       0.20144    0.57071    0.23543    1.000
    Si1226   Si       0.22304    0.53237    0.14281    1.000
    Si1227   Si       0.21587    0.66985    0.17688    1.000
    Si1228   Si       0.19548    0.74833    0.24162    1.000
    N1229    N        0.17609    0.66351    0.19352    1.000
    Si1230   Si       0.17497    0.67529    0.23800    1.000
    N1231    N        0.21900    0.71215    0.16566    1.000
    N1232    N        0.20342    0.70501    0.24840    1.000
    Si1233   Si       0.21462    0.62146    0.27985    1.000
    N1234    N        0.21909    0.54168    0.32821    1.000
    Si1235   Si       0.18802    0.50946    0.32781    1.000
    N1236    N        0.17077    0.57790    0.26887    1.000
    Si1237   Si       0.20686    0.64019    0.36022    1.000
    N1238    N        0.17851    0.64091    0.26463    1.000
    N1239    N        0.19038    0.67931    0.34761    1.000
    N1240    N        0.20172    0.74966    0.34964    1.000
    Si1241   Si       0.21979    0.70917    0.35067    1.000
    N1242    N        0.17295    0.61667    0.37850    1.000
    N1243    N        0.18972    0.61242    0.44541    1.000
    N1244    N        0.18110    0.55034    0.41748    1.000
    Si1245   Si       0.21503    0.58973    0.47357    1.000
    N1246    N        0.19005    0.55841    0.48813    1.000
    Si1247   Si       0.19206    0.58990    0.40818    1.000
    Si1248   Si       0.17439    0.51644    0.39047    1.000
    N1249    N        0.18845    0.68543    0.42751    1.000
    N1250    N        0.20626    0.65953    0.49328    1.000
    N1251    N        0.17921    0.75754    0.42132    1.000
    Si1252   Si       0.17991    0.65360    0.45872    1.000
    N1253    N        0.19203    0.54212    0.56047    1.000
    Si1254   Si       0.19834    0.55489    0.60192    1.000
    N1255    N        0.17967    0.59427    0.61097    1.000
    Si1256   Si       0.19516    0.63108    0.52519    1.000
    Si1257   Si       0.16995    0.55916    0.52671    1.000
    Si1258   Si       0.20310    0.62892    0.61002    1.000
    N1259    N        0.20317    0.64339    0.56731    1.000
    Si1260   Si       0.17804    0.73702    0.53178    1.000
    N1261    N        0.21866    0.73847    0.51611    1.000
    N1262    N        0.21652    0.74831    0.61666    1.000
    N1263    N        0.18430    0.66933    0.61968    1.000
    N1264    N        0.19244    0.51512    0.62120    1.000
    N1265    N        0.19931    0.53490    0.69202    1.000
    N1266    N        0.17302    0.59234    0.71406    1.000
    N1267    N        0.18825    0.66238    0.71390    1.000
    Si1268   Si       0.20698    0.70492    0.62878    1.000
    N1269    N        0.16876    0.72044    0.65408    1.000
    N1270    N        0.19196    0.60667    0.78064    1.000
    N1271    N        0.18271    0.54096    0.76122    1.000
    Si1272   Si       0.19387    0.53734    0.85391    1.000
    N1273    N        0.17528    0.57631    0.84550    1.000
    Si1274   Si       0.20953    0.51445    0.78425    1.000
    Si1275   Si       0.19848    0.57977    0.74710    1.000
    N1276    N        0.21879    0.64169    0.82818    1.000
    Si1277   Si       0.21367    0.64428    0.78564    1.000
    Si1278   Si       0.17671    0.70716    0.80661    1.000
    N1279    N        0.18031    0.67434    0.77852    1.000
    Si1280   Si       0.18065    0.65048    0.84599    1.000
    N1281    N        0.21828    0.72196    0.80614    1.000
    N1282    N        0.17270    0.69116    0.84657    1.000
    N1283    N        0.18272    0.62271    0.95897    1.000
    N1284    N        0.18042    0.54952    0.97460    1.000
    Si1285   Si       0.18482    0.58127    0.94452    1.000
    N1286    N        0.17572    0.51998    0.88975    1.000
    Si1287   Si       0.22247    0.53870    0.96777    1.000
    N1288    N        0.17522    0.63271    0.88618    1.000
    N1289    N        0.17068    0.69369    0.92389    1.000
    N1290    N        0.20655    0.73933    0.87762    1.000
    Si1291   Si       0.16939    0.71303    0.88338    1.000
    N1292    N        0.21198    0.70672    0.97970    1.000
    Si1293   Si       0.18678    0.65080    0.92478    1.000
    Si1294   Si       0.17016    0.70546    0.96765    1.000
    N1295    N        0.20272    0.84066    0.01997    1.000
    Si1296   Si       0.19445    0.76879    0.03014    1.000
    Si1297   Si       0.20334    0.93349    0.02727    1.000
    N1298    N        0.17143    0.91854    0.05337    1.000
    Si1299   Si       0.18057    0.93292    0.09440    1.000
    N1300    N        0.17609    0.97701    0.09170    1.000
    N1301    N        0.21973    0.91526    0.10289    1.000
    Si1302   Si       0.18938    0.01176    0.11260    1.000
    N1303    N        0.22882    0.90237    0.01278    1.000
    N1304    N        0.19773    0.85140    0.13539    1.000
    Si1305   Si       0.21027    0.81793    0.16263    1.000
    N1306    N        0.16536    0.80316    0.16262    1.000
    Si1307   Si       0.17633    0.92396    0.23073    1.000
    N1308    N        0.19804    0.99892    0.15396    1.000
    N1309    N        0.21430    0.90431    0.22610    1.000
    N1310    N        0.16507    0.94142    0.18988    1.000
    Si1311   Si       0.16291    0.98386    0.17844    1.000
    N1312    N        0.16647    0.00376    0.21726    1.000
    Si1313   Si       0.18105    0.81827    0.26514    1.000
    N1314    N        0.18686    0.77558    0.27425    1.000
    Si1315   Si       0.18828    0.77640    0.31781    1.000
    Si1316   Si       0.17150    0.85760    0.33709    1.000
    N1317    N        0.20768    0.87611    0.32328    1.000
    N1318    N        0.21672    0.84349    0.25943    1.000
    N1319    N        0.21766    0.80977    0.32797    1.000
    Si1320   Si       0.19395    0.96103    0.35262    1.000
    N1321    N        0.17371    0.95356    0.26168    1.000
    N1322    N        0.21885    0.94862    0.32039    1.000
    Si1323   Si       0.19790    0.98555    0.24468    1.000
    Si1324   Si       0.21138    0.75949    0.39143    1.000
    Si1325   Si       0.22499    0.77320    0.49364    1.000
    N1326    N        0.18819    0.84270    0.37534    1.000
    N1327    N        0.18501    0.79036    0.49020    1.000
    Si1328   Si       0.18130    0.85974    0.41348    1.000
    Si1329   Si       0.18997    0.84067    0.48443    1.000
    N1330    N        0.17599    0.82707    0.44114    1.000
    Si1331   Si       0.16340    0.78768    0.45056    1.000
    N1332    N        0.17719    0.88248    0.47518    1.000
    Si1333   Si       0.21760    0.92344    0.40458    1.000
    Si1334   Si       0.20145    0.91847    0.47673    1.000
    Si1335   Si       0.19900    0.98651    0.42135    1.000
    N1336    N        0.18235    0.92415    0.37650    1.000
    N1337    N        0.21765    0.88354    0.42333    1.000
    N1338    N        0.22132    0.97451    0.38526    1.000
    N1339    N        0.20481    0.94516    0.44114    1.000
    N1340    N        0.18393    0.86932    0.59228    1.000
    Si1341   Si       0.19526    0.78169    0.59449    1.000
    N1342    N        0.17543    0.77416    0.55850    1.000
    N1343    N        0.17401    0.83854    0.52476    1.000
    N1344    N        0.22708    0.81133    0.58360    1.000
    Si1345   Si       0.19034    0.96182    0.54939    1.000
    N1346    N        0.18465    0.93707    0.51273    1.000
    N1347    N        0.21859    0.94559    0.57855    1.000
    N1348    N        0.20209    0.00247    0.53803    1.000
    N1349    N        0.16836    0.79170    0.62568    1.000
    N1350    N        0.21341    0.76270    0.68601    1.000
    Si1351   Si       0.18927    0.86401    0.70261    1.000
    N1352    N        0.17791    0.82331    0.71312    1.000
    Si1353   Si       0.20936    0.79162    0.71880    1.000
    N1354    N        0.20232    0.86915    0.66275    1.000
    Si1355   Si       0.17103    0.88003    0.63261    1.000
    Si1356   Si       0.18117    0.76347    0.65750    1.000
    Si1357   Si       0.20385    0.94345    0.61942    1.000
    N1358    N        0.22154    0.88067    0.72573    1.000
    Si1359   Si       0.16928    0.97195    0.74297    1.000
    N1360    N        0.19446    0.98574    0.62558    1.000
    Si1361   Si       0.17994    0.99910    0.66811    1.000
    N1362    N        0.19346    0.99043    0.70913    1.000
    N1363    N        0.16594    0.92306    0.62227    1.000
    Si1364   Si       0.21305    0.80983    0.82973    1.000
    N1365    N        0.17702    0.80723    0.80447    1.000
    N1366    N        0.20253    0.76905    0.75462    1.000
    N1367    N        0.17006    0.87381    0.78500    1.000
    Si1368   Si       0.16627    0.77492    0.77740    1.000
    Si1369   Si       0.20611    0.88255    0.80819    1.000
    N1370    N        0.19936    0.90183    0.84710    1.000
    Si1371   Si       0.17232    0.99047    0.85580    1.000
    N1372    N        0.18419    0.93282    0.75090    1.000
    Si1373   Si       0.22436    0.91787    0.74891    1.000
    Si1374   Si       0.21736    0.93403    0.86955    1.000
    N1375    N        0.19652    0.80591    0.87041    1.000
    Si1376   Si       0.20463    0.77614    0.90120    1.000
    N1377    N        0.20130    0.78007    0.98741    1.000
    Si1378   Si       0.20693    0.87244    0.98953    1.000
    N1379    N        0.17541    0.85862    0.90911    1.000
    N1380    N        0.16804    0.77841    0.92496    1.000
    N1381    N        0.16767    0.88843    0.97660    1.000
    Si1382   Si       0.15983    0.82644    0.88208    1.000
    N1383    N        0.17933    0.94978    0.99597    1.000
    N1384    N        0.20913    0.92171    0.91239    1.000
    Si1385   Si       0.20313    0.96854    0.92216    1.000
    N1386    N        0.17523    0.99488    0.94405    1.000
    N1387    N        0.20211    0.97217    0.87901    1.000
    Si1388   Si       0.17024    0.99217    0.98813    1.000
    Si1389   Si       0.16860    0.88702    0.87473    1.000
    Si1390   Si       0.25556    0.04773    0.09872    1.000
    Si1391   Si       0.27102    0.09482    0.03004    1.000
    N1392    N        0.26980    0.06906    0.06464    1.000
    Si1393   Si       0.22844    0.11673    0.11448    1.000
    N1394    N        0.22695    0.08701    0.01867    1.000
    N1395    N        0.26808    0.00810    0.03011    1.000
    N1396    N        0.27619    0.13747    0.03130    1.000
    N1397    N        0.24834    0.21167    0.02617    1.000
    Si1398   Si       0.24268    0.22671    0.10600    1.000
    Si1399   Si       0.25405    0.17072    0.01342    1.000
    N1400    N        0.27340    0.20115    0.09398    1.000
    Si1401   Si       0.26746    0.25214    0.02790    1.000
    N1402    N        0.24723    0.07846    0.12893    1.000
    Si1403   Si       0.25515    0.09308    0.23553    1.000
    N1404    N        0.25371    0.03287    0.18321    1.000
    N1405    N        0.24148    0.10511    0.19625    1.000
    Si1406   Si       0.23607    0.07023    0.16952    1.000
    N1407    N        0.23775    0.21555    0.14819    1.000
    Si1408   Si       0.25631    0.24853    0.17076    1.000
    N1409    N        0.27000    0.22954    0.20757    1.000
    N1410    N        0.27251    0.16383    0.20928    1.000
    Si1411   Si       0.28250    0.17226    0.12505    1.000
    N1412    N        0.24875    0.14746    0.13846    1.000
    Si1413   Si       0.23397    0.22899    0.23278    1.000
    Si1414   Si       0.24225    0.14552    0.18254    1.000
    Si1415   Si       0.25541    0.05429    0.34293    1.000
    Si1416   Si       0.25744    0.11616    0.30806    1.000
    N1417    N        0.24640    0.07307    0.30329    1.000
    N1418    N        0.25581    0.10720    0.35404    1.000
    N1419    N        0.25832    0.12479    0.26465    1.000
    N1420    N        0.25379    0.01047    0.33217    1.000
    N1421    N        0.22934    0.23266    0.32010    1.000
    N1422    N        0.24621    0.15997    0.32173    1.000
    Si1423   Si       0.23876    0.14477    0.36436    1.000
    Si1424   Si       0.26928    0.16645    0.25290    1.000
    N1425    N        0.23469    0.19508    0.26034    1.000
    Si1426   Si       0.23092    0.10954    0.45526    1.000
    N1427    N        0.26497    0.03804    0.38756    1.000
    Si1428   Si       0.26231    0.02016    0.44988    1.000
    N1429    N        0.24841    0.09781    0.49165    1.000
    N1430    N        0.26058    0.13253    0.43627    1.000
    N1431    N        0.25077    0.02569    0.49128    1.000
    Si1432   Si       0.22470    0.05455    0.39903    1.000
    Si1433   Si       0.27514    0.06190    0.49527    1.000
    N1434    N        0.26656    0.16979    0.38424    1.000
    N1435    N        0.24950    0.24325    0.39081    1.000
    Si1436   Si       0.24047    0.24029    0.45500    1.000
    Si1437   Si       0.25613    0.20223    0.40832    1.000
    N1438    N        0.27990    0.21871    0.44117    1.000
    N1439    N        0.25385    0.05533    0.54598    1.000
    Si1440   Si       0.24319    0.01415    0.53046    1.000
    Si1441   Si       0.25085    0.12904    0.52243    1.000
    N1442    N        0.22503    0.11727    0.55397    1.000
    Si1443   Si       0.24280    0.19170    0.58577    1.000
    Si1444   Si       0.26599    0.20184    0.51621    1.000
    N1445    N        0.26517    0.21620    0.55685    1.000
    N1446    N        0.26961    0.16349    0.60722    1.000
    N1447    N        0.24421    0.16707    0.50198    1.000
    N1448    N        0.22810    0.21132    0.62241    1.000
    N1449    N        0.24231    0.23415    0.49718    1.000
    N1450    N        0.23758    0.03254    0.70637    1.000
    N1451    N        0.26434    0.05487    0.65463    1.000
    N1452    N        0.24993    0.12055    0.71728    1.000
    Si1453   Si       0.27617    0.02561    0.68352    1.000
    Si1454   Si       0.25027    0.18819    0.72172    1.000
    Si1455   Si       0.27879    0.17312    0.64956    1.000
    N1456    N        0.24830    0.23192    0.71979    1.000
    N1457    N        0.24596    0.17190    0.68125    1.000
    Si1458   Si       0.26109    0.23687    0.63599    1.000
    Si1459   Si       0.25502    0.03583    0.77843    1.000
    N1460    N        0.25708    0.03426    0.82061    1.000
    N1461    N        0.26326    0.07591    0.76351    1.000
    Si1462   Si       0.23812    0.11316    0.85528    1.000
    N1463    N        0.28002    0.12194    0.86118    1.000
    Si1464   Si       0.23923    0.18745    0.83793    1.000
    N1465    N        0.23632    0.24360    0.79362    1.000
    N1466    N        0.27267    0.18758    0.80988    1.000
    Si1467   Si       0.27706    0.22970    0.80109    1.000
    N1468    N        0.24160    0.22490    0.86378    1.000
    Si1469   Si       0.26961    0.07059    0.95915    1.000
    N1470    N        0.22998    0.04184    0.88875    1.000
    N1471    N        0.22820    0.05949    0.95646    1.000
    Si1472   Si       0.25811    0.01454    0.91025    1.000
    N1473    N        0.28406    0.10594    0.93799    1.000
    Si1474   Si       0.25247    0.19563    0.94374    1.000
    Si1475   Si       0.28162    0.13323    0.90255    1.000
    N1476    N        0.25360    0.16631    0.91223    1.000
    N1477    N        0.27819    0.17874    0.97491    1.000
    Si1478   Si       0.26690    0.24771    0.89108    1.000
    N1479    N        0.25538    0.23778    0.93178    1.000
    Si1480   Si       0.26314    0.35882    0.10759    1.000
    N1481    N        0.24370    0.33593    0.07733    1.000
    N1482    N        0.24882    0.26998    0.10565    1.000
    Si1483   Si       0.23103    0.35430    0.03937    1.000
    N1484    N        0.25894    0.35434    0.00760    1.000
    N1485    N        0.23020    0.26912    0.04243    1.000
    Si1486   Si       0.22761    0.29501    0.07733    1.000
    Si1487   Si       0.26058    0.47854    0.08850    1.000
    N1488    N        0.27494    0.41777    0.02869    1.000
    Si1489   Si       0.23120    0.42856    0.02818    1.000
    N1490    N        0.27518    0.45429    0.12214    1.000
    N1491    N        0.25872    0.33939    0.20091    1.000
    Si1492   Si       0.23591    0.32361    0.16904    1.000
    N1493    N        0.27091    0.33297    0.14163    1.000
    Si1494   Si       0.26029    0.34905    0.24259    1.000
    N1495    N        0.23012    0.28108    0.17622    1.000
    Si1496   Si       0.24200    0.43050    0.13455    1.000
    N1497    N        0.23116    0.44295    0.17488    1.000
    N1498    N        0.23641    0.38983    0.12509    1.000
    Si1499   Si       0.24432    0.47294    0.20267    1.000
    N1500    N        0.28281    0.48185    0.21902    1.000
    N1501    N        0.23897    0.30317    0.31387    1.000
    N1502    N        0.25900    0.37476    0.31658    1.000
    Si1503   Si       0.27100    0.33406    0.30715    1.000
    N1504    N        0.23330    0.26636    0.25609    1.000
    Si1505   Si       0.24913    0.26417    0.29732    1.000
    N1506    N        0.27701    0.38619    0.25153    1.000
    Si1507   Si       0.24849    0.38910    0.35878    1.000
    N1508    N        0.27499    0.44142    0.29762    1.000
    Si1509   Si       0.25538    0.40608    0.28454    1.000
    Si1510   Si       0.24792    0.46302    0.32582    1.000
    N1511    N        0.23701    0.43043    0.35377    1.000
    N1512    N        0.27006    0.49549    0.34621    1.000
    Si1513   Si       0.25881    0.32059    0.45825    1.000
    N1514    N        0.26351    0.27835    0.45275    1.000
    N1515    N        0.27126    0.30976    0.39291    1.000
    Si1516   Si       0.28015    0.26805    0.41182    1.000
    N1517    N        0.28321    0.37647    0.38121    1.000
    Si1518   Si       0.22925    0.32063    0.39171    1.000
    N1519    N        0.27596    0.46265    0.41304    1.000
    Si1520   Si       0.25036    0.44396    0.44140    1.000
    N1521    N        0.25303    0.46697    0.47778    1.000
    N1522    N        0.26843    0.40483    0.45568    1.000
    Si1523   Si       0.26509    0.38123    0.49446    1.000
    N1524    N        0.25874    0.28443    0.53948    1.000
    N1525    N        0.23964    0.32425    0.61672    1.000
    Si1526   Si       0.27914    0.32261    0.53000    1.000
    Si1527   Si       0.28112    0.33251    0.61167    1.000
    Si1528   Si       0.22354    0.26373    0.52168    1.000
    N1529    N        0.25203    0.33716    0.49696    1.000
    Si1530   Si       0.25176    0.44667    0.59202    1.000
    N1531    N        0.23788    0.40813    0.51691    1.000
    N1532    N        0.23739    0.48812    0.58782    1.000
    N1533    N        0.27714    0.44249    0.55906    1.000
    Si1534   Si       0.22669    0.44646    0.50466    1.000
    N1535    N        0.21939    0.41669    0.58998    1.000
    Si1536   Si       0.22683    0.30607    0.65469    1.000
    Si1537   Si       0.23112    0.32399    0.72111    1.000
    N1538    N        0.24062    0.26669    0.66005    1.000
    N1539    N        0.25245    0.32784    0.68232    1.000
    Si1540   Si       0.25382    0.37228    0.66723    1.000
    N1541    N        0.26589    0.29958    0.74296    1.000
    N1542    N        0.27996    0.37205    0.63337    1.000
    N1543    N        0.27526    0.44215    0.62903    1.000
    Si1544   Si       0.27726    0.47633    0.65381    1.000
    Si1545   Si       0.24630    0.39105    0.73925    1.000
    N1546    N        0.27182    0.38803    0.70303    1.000
    N1547    N        0.24106    0.50082    0.66083    1.000
    N1548    N        0.25339    0.30544    0.81462    1.000
    Si1549   Si       0.26262    0.32424    0.77788    1.000
    Si1550   Si       0.27841    0.31358    0.84907    1.000
    N1551    N        0.23722    0.35213    0.75579    1.000
    N1552    N        0.26823    0.34897    0.87352    1.000
    N1553    N        0.26227    0.41848    0.76727    1.000
    N1554    N        0.25401    0.46808    0.81941    1.000
    Si1555   Si       0.25365    0.46141    0.77735    1.000
    N1556    N        0.25649    0.41505    0.86781    1.000
    N1557    N        0.25931    0.28890    0.88142    1.000
    N1558    N        0.25025    0.31291    0.94404    1.000
    Si1559   Si       0.24295    0.32508    0.90182    1.000
    Si1560   Si       0.25368    0.27280    0.96102    1.000
    Si1561   Si       0.23719    0.34547    0.97014    1.000
    N1562    N        0.24495    0.37362    0.93713    1.000
    N1563    N        0.28055    0.27273    0.99386    1.000
    Si1564   Si       0.24147    0.46823    0.96716    1.000
    Si1565   Si       0.25501    0.45033    0.89397    1.000
    Si1566   Si       0.27367    0.40336    0.93810    1.000
    N1567    N        0.25531    0.44163    0.93504    1.000
    N1568    N        0.22830    0.50449    0.94343    1.000
    N1569    N        0.27647    0.47625    0.99258    1.000
    N1570    N        0.26253    0.57271    0.05760    1.000
    Si1571   Si       0.25915    0.58877    0.09824    1.000
    N1572    N        0.24236    0.53337    0.00592    1.000
    N1573    N        0.24198    0.62732    0.08188    1.000
    Si1574   Si       0.24013    0.62512    0.03789    1.000
    N1575    N        0.27560    0.62032    0.01258    1.000
    Si1576   Si       0.22700    0.56205    0.03332    1.000
    Si1577   Si       0.27996    0.51202    0.02034    1.000
    N1578    N        0.23253    0.50819    0.10616    1.000
    N1579    N        0.25102    0.74254    0.10352    1.000
    N1580    N        0.25559    0.71957    0.03619    1.000
    Si1581   Si       0.24479    0.65907    0.11036    1.000
    Si1582   Si       0.25748    0.75360    0.06316    1.000
    N1583    N        0.23987    0.57040    0.13367    1.000
    N1584    N        0.27482    0.60191    0.19000    1.000
    Si1585   Si       0.23635    0.60017    0.16829    1.000
    N1586    N        0.22946    0.50888    0.18061    1.000
    N1587    N        0.27704    0.71374    0.24098    1.000
    Si1588   Si       0.24377    0.68642    0.24553    1.000
    N1589    N        0.28029    0.74435    0.16928    1.000
    N1590    N        0.22934    0.63934    0.14868    1.000
    Si1591   Si       0.23945    0.74483    0.18360    1.000
    N1592    N        0.24747    0.66448    0.20718    1.000
    Si1593   Si       0.28395    0.64245    0.20358    1.000
    Si1594   Si       0.26988    0.75734    0.24599    1.000
    N1595    N        0.23462    0.58679    0.25972    1.000
    N1596    N        0.27037    0.53094    0.28367    1.000
    Si1597   Si       0.26280    0.53210    0.32418    1.000
    Si1598   Si       0.27414    0.57023    0.26365    1.000
    N1599    N        0.27421    0.57184    0.33633    1.000
    Si1600   Si       0.23228    0.58219    0.34104    1.000
    N1601    N        0.22373    0.62159    0.32475    1.000
    N1602    N        0.25362    0.69755    0.32648    1.000
    N1603    N        0.24366    0.65517    0.27498    1.000
    Si1604   Si       0.25423    0.65482    0.31541    1.000
    N1605    N        0.22932    0.58365    0.38451    1.000
    N1606    N        0.25029    0.57580    0.45323    1.000
    Si1607   Si       0.26321    0.57835    0.41047    1.000
    Si1608   Si       0.27696    0.73333    0.46165    1.000
    Si1609   Si       0.28279    0.65001    0.38215    1.000
    Si1610   Si       0.24811    0.67054    0.49006    1.000
    N1611    N        0.23819    0.72281    0.39104    1.000
    N1612    N        0.23831    0.65593    0.38686    1.000
    N1613    N        0.25413    0.69517    0.45527    1.000
    Si1614   Si       0.23236    0.68826    0.41763    1.000
    N1615    N        0.27637    0.63582    0.48325    1.000
    N1616    N        0.24092    0.55711    0.61210    1.000
    Si1617   Si       0.26971    0.61188    0.52089    1.000
    Si1618   Si       0.24924    0.51530    0.61792    1.000
    N1619    N        0.22789    0.60628    0.51219    1.000
    N1620    N        0.27315    0.62938    0.56053    1.000
    N1621    N        0.24191    0.69217    0.59907    1.000
    N1622    N        0.25467    0.68417    0.53040    1.000
    Si1623   Si       0.25627    0.73297    0.60546    1.000
    Si1624   Si       0.26036    0.72640    0.53019    1.000
    Si1625   Si       0.24432    0.66295    0.56688    1.000
    N1626    N        0.26587    0.74982    0.56583    1.000
    Si1627   Si       0.26204    0.58949    0.63421    1.000
    N1628    N        0.26880    0.52634    0.72083    1.000
    Si1629   Si       0.24371    0.53627    0.68835    1.000
    Si1630   Si       0.26057    0.60404    0.70855    1.000
    N1631    N        0.25930    0.57602    0.67540    1.000
    N1632    N        0.24075    0.58375    0.74126    1.000
    N1633    N        0.24370    0.62886    0.62830    1.000
    Si1634   Si       0.23022    0.66912    0.72489    1.000
    Si1635   Si       0.25678    0.66105    0.65726    1.000
    Si1636   Si       0.24034    0.73071    0.69176    1.000
    N1637    N        0.24607    0.64107    0.69436    1.000
    N1638    N        0.23417    0.69916    0.66381    1.000
    N1639    N        0.23278    0.71249    0.73086    1.000
    N1640    N        0.27556    0.75261    0.69688    1.000
    N1641    N        0.24595    0.53664    0.79163    1.000
    Si1642   Si       0.26426    0.54709    0.83013    1.000
    Si1643   Si       0.26612    0.55274    0.75605    1.000
    Si1644   Si       0.24961    0.61729    0.84486    1.000
    N1645    N        0.27390    0.59031    0.82497    1.000
    N1646    N        0.23636    0.54404    0.86545    1.000
    N1647    N        0.27003    0.71585    0.85141    1.000
    N1648    N        0.24953    0.65329    0.75966    1.000
    Si1649   Si       0.23334    0.73596    0.84422    1.000
    Si1650   Si       0.23199    0.73819    0.76714    1.000
    N1651    N        0.27162    0.75654    0.77324    1.000
    Si1652   Si       0.24859    0.56461    0.90076    1.000
    N1653    N        0.24595    0.60665    0.88637    1.000
    N1654    N        0.22626    0.57118    0.93707    1.000
    N1655    N        0.22978    0.66119    0.93165    1.000
    Si1656   Si       0.24625    0.69604    0.95262    1.000
    N1657    N        0.26791    0.71994    0.92422    1.000
    Si1658   Si       0.26067    0.63643    0.91506    1.000
    N1659    N        0.27906    0.68647    0.98238    1.000
    N1660    N        0.26360    0.85255    0.05940    1.000
    Si1661   Si       0.23981    0.82090    0.03693    1.000
    N1662    N        0.25965    0.80638    0.00216    1.000
    N1663    N        0.22603    0.78268    0.05455    1.000
    Si1664   Si       0.26537    0.88601    0.03101    1.000
    Si1665   Si       0.24793    0.93760    0.07962    1.000
    Si1666   Si       0.27415    0.96413    0.03065    1.000
    N1667    N        0.27827    0.92149    0.04931    1.000
    N1668    N        0.23141    0.96196    0.04702    1.000
    N1669    N        0.28214    0.95761    0.09563    1.000
    Si1670   Si       0.23418    0.86377    0.22681    1.000
    Si1671   Si       0.26841    0.76668    0.13537    1.000
    N1672    N        0.23368    0.84394    0.18882    1.000
    N1673    N        0.26575    0.85905    0.12913    1.000
    N1674    N        0.27782    0.86885    0.22561    1.000
    Si1675   Si       0.27468    0.86150    0.17381    1.000
    N1676    N        0.23092    0.78000    0.15665    1.000
    N1677    N        0.23366    0.75913    0.22285    1.000
    N1678    N        0.23247    0.97389    0.21777    1.000
    N1679    N        0.24712    0.90597    0.16531    1.000
    Si1680   Si       0.23246    0.99595    0.17907    1.000
    Si1681   Si       0.22813    0.88281    0.13347    1.000
    Si1682   Si       0.23962    0.93002    0.20174    1.000
    N1683    N        0.25932    0.96806    0.15920    1.000
    N1684    N        0.28202    0.93430    0.21446    1.000
    Si1685   Si       0.27408    0.97317    0.23734    1.000
    N1686    N        0.26577    0.85153    0.36336    1.000
    N1687    N        0.27324    0.83365    0.29921    1.000
    Si1688   Si       0.23001    0.84231    0.30123    1.000
    Si1689   Si       0.22932    0.82612    0.36739    1.000
    N1690    N        0.27112    0.76092    0.29140    1.000
    N1691    N        0.27107    0.89794    0.31175    1.000
    N1692    N        0.27279    0.96296    0.27946    1.000
    Si1693   Si       0.23988    0.98171    0.30100    1.000
    Si1694   Si       0.23527    0.90841    0.33268    1.000
    Si1695   Si       0.26717    0.79063    0.42968    1.000
    N1696    N        0.23833    0.79367    0.39614    1.000
    N1697    N        0.23343    0.84314    0.47657    1.000
    N1698    N        0.24754    0.76475    0.45944    1.000
    Si1699   Si       0.27140    0.82712    0.49156    1.000
    Si1700   Si       0.24730    0.87706    0.45511    1.000
    N1701    N        0.28260    0.88755    0.43017    1.000
    Si1702   Si       0.27822    0.88547    0.38710    1.000
    Si1703   Si       0.25708    0.99461    0.37372    1.000
    N1704    N        0.24760    0.91437    0.37488    1.000
    N1705    N        0.24211    0.90624    0.48782    1.000
    N1706    N        0.25315    0.79787    0.51864    1.000
    Si1707   Si       0.25880    0.79208    0.56027    1.000
    N1708    N        0.23676    0.87604    0.55022    1.000
    N1709    N        0.25743    0.86195    0.61728    1.000
    Si1710   Si       0.22425    0.85439    0.58707    1.000
    Si1711   Si       0.26474    0.89378    0.52249    1.000
    Si1712   Si       0.26272    0.95176    0.57117    1.000
    N1713    N        0.27166    0.99191    0.55474    1.000
    N1714    N        0.28527    0.92575    0.54601    1.000
    Si1715   Si       0.27725    0.79442    0.68990    1.000
    Si1716   Si       0.25553    0.85707    0.71588    1.000
    N1717    N        0.24526    0.81532    0.71062    1.000
    N1718    N        0.27505    0.87116    0.68009    1.000
    N1719    N        0.28170    0.85962    0.74993    1.000
    N1720    N        0.26819    0.98405    0.67913    1.000
    Si1721   Si       0.27352    0.95143    0.64984    1.000
    Si1722   Si       0.24215    0.88273    0.65221    1.000
    N1723    N        0.24871    0.95262    0.73793    1.000
    N1724    N        0.23752    0.92683    0.64379    1.000
    Si1725   Si       0.23619    0.98494    0.71158    1.000
    N1726    N        0.24182    0.77800    0.83069    1.000
    Si1727   Si       0.26526    0.86248    0.78917    1.000
    Si1728   Si       0.27969    0.77987    0.80830    1.000
    N1729    N        0.23078    0.84527    0.81042    1.000
    N1730    N        0.26020    0.93648    0.85653    1.000
    N1731    N        0.23884    0.90608    0.78959    1.000
    Si1732   Si       0.27072    0.91959    0.81745    1.000
    N1733    N        0.28199    0.00519    0.75916    1.000
    Si1734   Si       0.27325    0.76184    0.92918    1.000
    N1735    N        0.23117    0.85225    0.96045    1.000
    Si1736   Si       0.22992    0.80767    0.97113    1.000
    N1737    N        0.26116    0.86705    0.89895    1.000
    Si1738   Si       0.27331    0.86520    0.96178    1.000
    N1739    N        0.23915    0.78635    0.92950    1.000
    Si1740   Si       0.23135    0.88510    0.92419    1.000
    N1741    N        0.28465    0.95891    0.98868    1.000
    N1742    N        0.28462    0.00087    0.87531    1.000
    Si1743   Si       0.26882    0.94878    0.94831    1.000
    N1744    N        0.24217    0.98123    0.93208    1.000
    N1745    N        0.26194    0.90641    0.94901    1.000
    Si1746   Si       0.30257    0.03158    0.02066    1.000
    N1747    N        0.32373    0.10224    0.04680    1.000
    N1748    N        0.33276    0.03213    0.05270    1.000
    N1749    N        0.33158    0.08052    0.11172    1.000
    Si1750   Si       0.33283    0.09320    0.00361    1.000
    N1751    N        0.29432    0.07192    0.99817    1.000
    N1752    N        0.28714    0.02390    0.11985    1.000
    Si1753   Si       0.34299    0.06954    0.07019    1.000
    Si1754   Si       0.31704    0.14328    0.05860    1.000
    N1755    N        0.30857    0.14550    0.10128    1.000
    N1756    N        0.31648    0.18311    0.03527    1.000
    Si1757   Si       0.30976    0.21205    0.06908    1.000
    N1758    N        0.30208    0.25264    0.05559    1.000
    N1759    N        0.33683    0.21882    0.10250    1.000
    Si1760   Si       0.33181    0.12121    0.13032    1.000
    Si1761   Si       0.32566    0.03969    0.12927    1.000
    N1762    N        0.32525    0.03644    0.17354    1.000
    Si1763   Si       0.29485    0.03629    0.20370    1.000
    Si1764   Si       0.32308    0.10465    0.21114    1.000
    N1765    N        0.29407    0.07492    0.22425    1.000
    N1766    N        0.31716    0.11795    0.17089    1.000
    Si1767   Si       0.29831    0.19633    0.19743    1.000
    N1768    N        0.33691    0.19877    0.21708    1.000
    N1769    N        0.33070    0.13555    0.24064    1.000
    N1770    N        0.30622    0.19162    0.15475    1.000
    Si1771   Si       0.32099    0.22893    0.14081    1.000
    N1772    N        0.30128    0.06041    0.33958    1.000
    Si1773   Si       0.30155    0.10244    0.35189    1.000
    Si1774   Si       0.33292    0.12285    0.28290    1.000
    N1775    N        0.30183    0.12787    0.31495    1.000
    N1776    N        0.33632    0.08000    0.28036    1.000
    Si1777   Si       0.30767    0.03109    0.37195    1.000
    Si1778   Si       0.34350    0.05742    0.31917    1.000
    Si1779   Si       0.31779    0.22490    0.30131    1.000
    N1780    N        0.30970    0.20445    0.33964    1.000
    Si1781   Si       0.33182    0.23232    0.36534    1.000
    N1782    N        0.29518    0.18913    0.28188    1.000
    Si1783   Si       0.28950    0.17030    0.32167    1.000
    N1784    N        0.29136    0.05468    0.45523    1.000
    N1785    N        0.31783    0.11369    0.39044    1.000
    Si1786   Si       0.33347    0.04812    0.44412    1.000
    N1787    N        0.33415    0.04901    0.40171    1.000
    N1788    N        0.31795    0.25691    0.39722    1.000
    Si1789   Si       0.31538    0.20288    0.45967    1.000
    N1790    N        0.32063    0.16991    0.43031    1.000
    Si1791   Si       0.29159    0.14262    0.40943    1.000
    N1792    N        0.32289    0.03444    0.56522    1.000
    N1793    N        0.31004    0.07553    0.51647    1.000
    Si1794   Si       0.29571    0.06491    0.55634    1.000
    N1795    N        0.29097    0.08884    0.59312    1.000
    Si1796   Si       0.29259    0.13132    0.58746    1.000
    N1797    N        0.33309    0.13889    0.60495    1.000
    N1798    N        0.28904    0.14011    0.54352    1.000
    Si1799   Si       0.32239    0.16189    0.52713    1.000
    N1800    N        0.30653    0.19178    0.50006    1.000
    N1801    N        0.28375    0.26221    0.60706    1.000
    Si1802   Si       0.27887    0.25631    0.56454    1.000
    N1803    N        0.31350    0.02428    0.62512    1.000
    Si1804   Si       0.29483    0.06389    0.62837    1.000
    N1805    N        0.33014    0.07846    0.65070    1.000
    N1806    N        0.31799    0.10742    0.72429    1.000
    Si1807   Si       0.33069    0.07562    0.69691    1.000
    N1808    N        0.30949    0.03939    0.70574    1.000
    Si1809   Si       0.33427    0.12163    0.64618    1.000
    Si1810   Si       0.31941    0.02435    0.74454    1.000
    N1811    N        0.29411    0.21418    0.65354    1.000
    Si1812   Si       0.31943    0.20200    0.74265    1.000
    Si1813   Si       0.28907    0.13723    0.70800    1.000
    Si1814   Si       0.32476    0.23773    0.67520    1.000
    N1815    N        0.30265    0.14115    0.66723    1.000
    N1816    N        0.28807    0.17228    0.73800    1.000
    N1817    N        0.34102    0.21401    0.70826    1.000
    N1818    N        0.31504    0.06544    0.84028    1.000
    Si1819   Si       0.31355    0.10874    0.83527    1.000
    Si1820   Si       0.30359    0.09238    0.76304    1.000
    N1821    N        0.32692    0.05701    0.77180    1.000
    N1822    N        0.30384    0.12118    0.79343    1.000
    Si1823   Si       0.29303    0.02566    0.84239    1.000
    Si1824   Si       0.34441    0.04713    0.81229    1.000
    N1825    N        0.30182    0.23815    0.76341    1.000
    N1826    N        0.33271    0.18206    0.78112    1.000
    Si1827   Si       0.29472    0.16113    0.78250    1.000
    N1828    N        0.30451    0.25171    0.82675    1.000
    Si1829   Si       0.33645    0.23899    0.85690    1.000
    Si1830   Si       0.32873    0.03305    0.94746    1.000
    Si1831   Si       0.32748    0.11721    0.94174    1.000
    N1832    N        0.33271    0.13033    0.98158    1.000
    N1833    N        0.28746    0.03589    0.93595    1.000
    N1834    N        0.32504    0.01318    0.98638    1.000
    N1835    N        0.30954    0.24439    0.89181    1.000
    N1836    N        0.32348    0.14376    0.90964    1.000
    Si1837   Si       0.31823    0.17203    0.99191    1.000
    N1838    N        0.31102    0.30818    0.09484    1.000
    Si1839   Si       0.33206    0.34588    0.10354    1.000
    Si1840   Si       0.33150    0.28277    0.06416    1.000
    N1841    N        0.30046    0.37438    0.09489    1.000
    N1842    N        0.32618    0.37913    0.03183    1.000
    Si1843   Si       0.30107    0.36756    0.99849    1.000
    N1844    N        0.33752    0.45048    0.01192    1.000
    Si1845   Si       0.30035    0.40150    0.06160    1.000
    N1846    N        0.31578    0.43970    0.07693    1.000
    N1847    N        0.28865    0.50267    0.06269    1.000
    Si1848   Si       0.31668    0.44956    0.12088    1.000
    Si1849   Si       0.29849    0.43793    0.99784    1.000
    Si1850   Si       0.28096    0.29246    0.12336    1.000
    Si1851   Si       0.32533    0.27689    0.18568    1.000
    N1852    N        0.32561    0.26759    0.22878    1.000
    N1853    N        0.33217    0.32024    0.18773    1.000
    Si1854   Si       0.29669    0.34464    0.18016    1.000
    N1855    N        0.29479    0.26516    0.15496    1.000
    N1856    N        0.32261    0.43258    0.24155    1.000
    N1857    N        0.31167    0.38435    0.18797    1.000
    N1858    N        0.32759    0.49456    0.12283    1.000
    Si1859   Si       0.31694    0.39038    0.23412    1.000
    Si1860   Si       0.32466    0.47024    0.22172    1.000
    N1861    N        0.30260    0.32353    0.33462    1.000
    Si1862   Si       0.30917    0.28746    0.26257    1.000
    Si1863   Si       0.33358    0.29595    0.32466    1.000
    N1864    N        0.29264    0.26010    0.29263    1.000
    N1865    N        0.28495    0.32300    0.26679    1.000
    Si1866   Si       0.31357    0.44821    0.28056    1.000
    N1867    N        0.32481    0.48965    0.26446    1.000
    N1868    N        0.34386    0.45181    0.31233    1.000
    Si1869   Si       0.30239    0.33736    0.37492    1.000
    N1870    N        0.29498    0.34635    0.45023    1.000
    Si1871   Si       0.33619    0.33042    0.44575    1.000
    N1872    N        0.33419    0.34948    0.40352    1.000
    N1873    N        0.33987    0.28745    0.45434    1.000
    Si1874   Si       0.28452    0.49877    0.38624    1.000
    Si1875   Si       0.31737    0.45663    0.42514    1.000
    N1876    N        0.32833    0.49303    0.40155    1.000
    Si1877   Si       0.29515    0.38306    0.42511    1.000
    N1878    N        0.32465    0.41435    0.41650    1.000
    Si1879   Si       0.29209    0.48808    0.48698    1.000
    N1880    N        0.32167    0.46293    0.46880    1.000
    N1881    N        0.32088    0.31313    0.51604    1.000
    N1882    N        0.29568    0.32643    0.57302    1.000
    Si1883   Si       0.32451    0.27851    0.61734    1.000
    Si1884   Si       0.33455    0.30471    0.55802    1.000
    N1885    N        0.32087    0.26275    0.55764    1.000
    Si1886   Si       0.33704    0.35895    0.51051    1.000
    N1887    N        0.29702    0.37565    0.52198    1.000
    Si1888   Si       0.30836    0.47160    0.55386    1.000
    Si1889   Si       0.30344    0.40992    0.54657    1.000
    N1890    N        0.31853    0.39951    0.58728    1.000
    N1891    N        0.33465    0.44112    0.53331    1.000
    N1892    N        0.30160    0.50416    0.52796    1.000
    N1893    N        0.34053    0.47846    0.58292    1.000
    N1894    N        0.32827    0.34431    0.69639    1.000
    N1895    N        0.30676    0.31105    0.64023    1.000
    Si1896   Si       0.29719    0.31372    0.68234    1.000
    N1897    N        0.30411    0.27224    0.69620    1.000
    Si1898   Si       0.31493    0.38487    0.69913    1.000
    Si1899   Si       0.27978    0.26000    0.73070    1.000
    Si1900   Si       0.33542    0.44456    0.68906    1.000
    N1901    N        0.33065    0.40974    0.66116    1.000
    N1902    N        0.32852    0.41836    0.72436    1.000
    Si1903   Si       0.29965    0.49824    0.72315    1.000
    Si1904   Si       0.30077    0.40835    0.62642    1.000
    N1905    N        0.30538    0.47416    0.68635    1.000
    N1906    N        0.32195    0.31757    0.84288    1.000
    N1907    N        0.29739    0.34881    0.78484    1.000
    Si1908   Si       0.32762    0.35250    0.81295    1.000
    N1909    N        0.34623    0.29157    0.76815    1.000
    Si1910   Si       0.33194    0.25984    0.79014    1.000
    N1911    N        0.31767    0.38748    0.83943    1.000
    N1912    N        0.29172    0.47137    0.75792    1.000
    N1913    N        0.32886    0.45827    0.84236    1.000
    Si1914   Si       0.30380    0.42851    0.75803    1.000
    Si1915   Si       0.28993    0.47952    0.84090    1.000
    N1916    N        0.33863    0.42919    0.78352    1.000
    Si1917   Si       0.28863    0.38648    0.87043    1.000
    Si1918   Si       0.34086    0.42103    0.82609    1.000
    N1919    N        0.33944    0.26107    0.96215    1.000
    Si1920   Si       0.32105    0.29087    0.98973    1.000
    N1921    N        0.31911    0.33422    0.97857    1.000
    N1922    N        0.33963    0.30701    0.91483    1.000
    N1923    N        0.30294    0.40272    0.97052    1.000
    N1924    N        0.30427    0.40201    0.90775    1.000
    Si1925   Si       0.33610    0.40615    0.93864    1.000
    N1926    N        0.28489    0.48067    0.88617    1.000
    N1927    N        0.30750    0.54539    0.00919    1.000
    Si1928   Si       0.29422    0.58231    0.02868    1.000
    N1929    N        0.33275    0.60158    0.04159    1.000
    N1930    N        0.29659    0.60112    0.11608    1.000
    Si1931   Si       0.32783    0.51244    0.08275    1.000
    N1932    N        0.34036    0.55396    0.08605    1.000
    N1933    N        0.31023    0.67561    0.04444    1.000
    N1934    N        0.32169    0.73616    0.02142    1.000
    Si1935   Si       0.32069    0.68388    0.08655    1.000
    Si1936   Si       0.29166    0.70558    0.01811    1.000
    N1937    N        0.28529    0.67127    0.11159    1.000
    Si1938   Si       0.33683    0.64289    0.03185    1.000
    Si1939   Si       0.33189    0.57464    0.12343    1.000
    N1940    N        0.33922    0.59375    0.21268    1.000
    Si1941   Si       0.30564    0.56874    0.19614    1.000
    N1942    N        0.32735    0.55048    0.15951    1.000
    N1943    N        0.28998    0.54694    0.22779    1.000
    Si1944   Si       0.32222    0.74599    0.16038    1.000
    N1945    N        0.30675    0.64914    0.24158    1.000
    N1946    N        0.31342    0.65259    0.17221    1.000
    Si1947   Si       0.31406    0.63913    0.13013    1.000
    Si1948   Si       0.30400    0.60275    0.32516    1.000
    N1949    N        0.30846    0.59413    0.28056    1.000
    Si1950   Si       0.33352    0.61491    0.24993    1.000
    N1951    N        0.33788    0.51834    0.32927    1.000
    Si1952   Si       0.28977    0.51075    0.25055    1.000
    N1953    N        0.28781    0.63964    0.34008    1.000
    N1954    N        0.31753    0.70553    0.29070    1.000
    N1955    N        0.30222    0.74051    0.34923    1.000
    Si1956   Si       0.31456    0.69047    0.24923    1.000
    Si1957   Si       0.28392    0.72553    0.31185    1.000
    Si1958   Si       0.30356    0.62524    0.45150    1.000
    Si1959   Si       0.32256    0.53187    0.42718    1.000
    N1960    N        0.29731    0.52271    0.46133    1.000
    N1961    N        0.31761    0.58487    0.46225    1.000
    N1962    N        0.28833    0.54304    0.40038    1.000
    Si1963   Si       0.28339    0.56120    0.47728    1.000
    N1964    N        0.28582    0.61800    0.41116    1.000
    N1965    N        0.29420    0.75360    0.42095    1.000
    Si1966   Si       0.33879    0.68080    0.41321    1.000
    N1967    N        0.33536    0.65428    0.45006    1.000
    N1968    N        0.29673    0.68701    0.39837    1.000
    Si1969   Si       0.28153    0.72791    0.38756    1.000
    Si1970   Si       0.31627    0.54455    0.53704    1.000
    N1971    N        0.33291    0.54673    0.58013    1.000
    N1972    N        0.30357    0.59770    0.61645    1.000
    Si1973   Si       0.33432    0.51249    0.60859    1.000
    N1974    N        0.28638    0.57114    0.51957    1.000
    Si1975   Si       0.30781    0.62953    0.58495    1.000
    Si1976   Si       0.34165    0.58289    0.60316    1.000
    N1977    N        0.31948    0.66878    0.60072    1.000
    Si1978   Si       0.33544    0.73702    0.51665    1.000
    N1979    N        0.29394    0.73472    0.50244    1.000
    N1980    N        0.29943    0.62015    0.72118    1.000
    N1981    N        0.33855    0.51667    0.73021    1.000
    N1982    N        0.29336    0.50672    0.62256    1.000
    N1983    N        0.31751    0.67617    0.73924    1.000
    Si1984   Si       0.32011    0.65416    0.70142    1.000
    N1985    N        0.30074    0.67179    0.66498    1.000
    Si1986   Si       0.31590    0.69851    0.63389    1.000
    N1987    N        0.29275    0.73439    0.62875    1.000
    N1988    N        0.33352    0.73978    0.73834    1.000
    N1989    N        0.30520    0.56542    0.76945    1.000
    Si1990   Si       0.31170    0.59107    0.80307    1.000
    N1991    N        0.29695    0.52397    0.84279    1.000
    Si1992   Si       0.33941    0.55609    0.74673    1.000
    N1993    N        0.31862    0.63242    0.79193    1.000
    Si1994   Si       0.31193    0.72268    0.83667    1.000
    N1995    N        0.32751    0.69840    0.80606    1.000
    Si1996   Si       0.29372    0.64512    0.75839    1.000
    Si1997   Si       0.33769    0.70679    0.76352    1.000
    Si1998   Si       0.31358    0.58546    0.93289    1.000
    Si1999   Si       0.30712    0.51950    0.88921    1.000
    N2000    N        0.29132    0.55314    0.91042    1.000
    N2001    N        0.28828    0.62085    0.94285    1.000
    N2002    N        0.34430    0.57576    0.96114    1.000
    N2003    N        0.33511    0.64851    0.98841    1.000
    N2004    N        0.32717    0.71845    0.87687    1.000
    N2005    N        0.28892    0.66097    0.89332    1.000
    Si2006   Si       0.28882    0.70469    0.88967    1.000
    Si2007   Si       0.29184    0.64352    0.97998    1.000
    Si2008   Si       0.32949    0.64799    0.89864    1.000
    Si2009   Si       0.32055    0.78619    0.08415    1.000
    Si2010   Si       0.30067    0.77806    0.00941    1.000
    N2011    N        0.29174    0.77850    0.05452    1.000
    N2012    N        0.31798    0.82860    0.09860    1.000
    Si2013   Si       0.28984    0.86060    0.09301    1.000
    N2014    N        0.29033    0.87073    0.00118    1.000
    Si2015   Si       0.32964    0.85230    0.00188    1.000
    N2016    N        0.33188    0.80930    0.00019    1.000
    N2017    N        0.31658    0.89529    0.09534    1.000
    N2018    N        0.31996    0.96751    0.04085    1.000
    Si2019   Si       0.31428    0.93668    0.07357    1.000
    N2020    N        0.33989    0.77214    0.18874    1.000
    N2021    N        0.31178    0.77446    0.12558    1.000
    N2022    N        0.30220    0.82575    0.17662    1.000
    Si2023   Si       0.32248    0.80612    0.20960    1.000
    Si2024   Si       0.32336    0.81738    0.13870    1.000
    N2025    N        0.29921    0.79069    0.24389    1.000
    Si2026   Si       0.28828    0.98093    0.13120    1.000
    Si2027   Si       0.30905    0.89776    0.22393    1.000
    N2028    N        0.32046    0.95936    0.15243    1.000
    Si2029   Si       0.28669    0.93184    0.16877    1.000
    N2030    N        0.30845    0.89267    0.17649    1.000
    N2031    N        0.30525    0.00020    0.22489    1.000
    Si2032   Si       0.29534    0.79795    0.28759    1.000
    N2033    N        0.33309    0.86612    0.32913    1.000
    N2034    N        0.32967    0.79855    0.31383    1.000
    Si2035   Si       0.29012    0.86203    0.32746    1.000
    Si2036   Si       0.33581    0.76729    0.34396    1.000
    Si2037   Si       0.29449    0.92784    0.29165    1.000
    N2038    N        0.32342    0.91333    0.26462    1.000
    N2039    N        0.32479    0.93918    0.32332    1.000
    Si2040   Si       0.33322    0.97335    0.34916    1.000
    Si2041   Si       0.33228    0.82770    0.45680    1.000
    N2042    N        0.28926    0.81761    0.45360    1.000
    Si2043   Si       0.33921    0.76043    0.42119    1.000
    Si2044   Si       0.32100    0.97164    0.45691    1.000
    N2045    N        0.30030    0.98695    0.37000    1.000
    N2046    N        0.31762    0.90178    0.38036    1.000
    Si2047   Si       0.32279    0.89890    0.42421    1.000
    N2048    N        0.28300    0.98333    0.44191    1.000
    N2049    N        0.29272    0.81222    0.58043    1.000
    Si2050   Si       0.33421    0.85989    0.52823    1.000
    N2051    N        0.29293    0.85997    0.51318    1.000
    Si2052   Si       0.33264    0.79991    0.56713    1.000
    Si2053   Si       0.28915    0.83386    0.61788    1.000
    N2054    N        0.34195    0.77987    0.52854    1.000
    N2055    N        0.32374    0.96212    0.50045    1.000
    Si2056   Si       0.32587    0.94054    0.53805    1.000
    Si2057   Si       0.30692    0.99769    0.58546    1.000
    N2058    N        0.33726    0.96671    0.57087    1.000
    N2059    N        0.28269    0.96449    0.60965    1.000
    N2060    N        0.32444    0.86113    0.63047    1.000
    N2061    N        0.30954    0.79526    0.72538    1.000
    Si2062   Si       0.31634    0.77097    0.63808    1.000
    N2063    N        0.28836    0.80334    0.65031    1.000
    Si2064   Si       0.29385    0.75618    0.73770    1.000
    N2065    N        0.30521    0.92885    0.66583    1.000
    Si2066   Si       0.31373    0.88650    0.66316    1.000
    N2067    N        0.32116    0.94743    0.73629    1.000
    Si2068   Si       0.33491    0.93237    0.69930    1.000
    Si2069   Si       0.31460    0.84589    0.82459    1.000
    N2070    N        0.29558    0.81916    0.79583    1.000
    N2071    N        0.31187    0.76652    0.83321    1.000
    N2072    N        0.31377    0.82994    0.86332    1.000
    Si2073   Si       0.31094    0.82742    0.75546    1.000
    N2074    N        0.29081    0.88157    0.81954    1.000
    Si2075   Si       0.32671    0.78663    0.86802    1.000
    Si2076   Si       0.32974    0.96599    0.81971    1.000
    N2077    N        0.32842    0.94226    0.85699    1.000
    N2078    N        0.29477    0.95062    0.79919    1.000
    Si2079   Si       0.28670    0.96225    0.75937    1.000
    N2080    N        0.32923    0.00665    0.82393    1.000
    N2081    N        0.30506    0.78233    0.90678    1.000
    Si2082   Si       0.31906    0.79996    0.94652    1.000
    N2083    N        0.30229    0.84044    0.94362    1.000
    Si2084   Si       0.30183    0.85202    0.89977    1.000
    N2085    N        0.29746    0.76682    0.96709    1.000
    N2086    N        0.33841    0.87797    0.90410    1.000
    Si2087   Si       0.29195    0.95862    0.87655    1.000
    N2088    N        0.30265    0.95489    0.91988    1.000
    Si2089   Si       0.34444    0.96581    0.93184    1.000
    Si2090   Si       0.32434    0.97090    0.99620    1.000
    N2091    N        0.38454    0.08353    0.06937    1.000
    Si2092   Si       0.38408    0.12473    0.08725    1.000
    N2093    N        0.37146    0.07169    0.00224    1.000
    N2094    N        0.35412    0.01226    0.10946    1.000
    N2095    N        0.36426    0.15104    0.05884    1.000
    N2096    N        0.37488    0.22206    0.04620    1.000
    Si2097   Si       0.37668    0.23106    0.08742    1.000
    Si2098   Si       0.36908    0.18144    0.02892    1.000
    Si2099   Si       0.36431    0.04138    0.19190    1.000
    N2100    N        0.35901    0.08061    0.21522    1.000
    N2101    N        0.37214    0.02368    0.23101    1.000
    N2102    N        0.39306    0.03852    0.16073    1.000
    N2103    N        0.37379    0.13359    0.12907    1.000
    Si2104   Si       0.39882    0.10096    0.21603    1.000
    Si2105   Si       0.39544    0.15352    0.15948    1.000
    N2106    N        0.35231    0.24704    0.16380    1.000
    Si2107   Si       0.39308    0.23846    0.17438    1.000
    N2108    N        0.38802    0.14027    0.20005    1.000
    Si2109   Si       0.36237    0.16431    0.22811    1.000
    Si2110   Si       0.35513    0.23401    0.23501    1.000
    N2111    N        0.39111    0.24842    0.21604    1.000
    Si2112   Si       0.38091    0.12627    0.33399    1.000
    N2113    N        0.35686    0.09048    0.34364    1.000
    N2114    N        0.38253    0.04544    0.29547    1.000
    Si2115   Si       0.36942    0.06254    0.25634    1.000
    N2116    N        0.34488    0.01207    0.33429    1.000
    N2117    N        0.36518    0.14821    0.30098    1.000
    N2118    N        0.35520    0.22473    0.27800    1.000
    Si2119   Si       0.37743    0.18737    0.28639    1.000
    Si2120   Si       0.38306    0.24781    0.30664    1.000
    N2121    N        0.39112    0.15076    0.36964    1.000
    N2122    N        0.34674    0.25379    0.33034    1.000
    N2123    N        0.39695    0.18267    0.24868    1.000
    Si2124   Si       0.39669    0.07730    0.44628    1.000
    N2125    N        0.35844    0.07583    0.46641    1.000
    Si2126   Si       0.35068    0.08591    0.38657    1.000
    N2127    N        0.38566    0.09444    0.40786    1.000
    N2128    N        0.36384    0.20835    0.38054    1.000
    Si2129   Si       0.35970    0.18636    0.41846    1.000
    Si2130   Si       0.38555    0.21904    0.47948    1.000
    N2131    N        0.35473    0.21801    0.44853    1.000
    N2132    N        0.39265    0.16367    0.43337    1.000
    Si2133   Si       0.35231    0.25665    0.42615    1.000
    Si2134   Si       0.36338    0.04224    0.56573    1.000
    N2135    N        0.37428    0.05416    0.60561    1.000
    N2136    N        0.37541    0.07240    0.53708    1.000
    Si2137   Si       0.34744    0.09040    0.50613    1.000
    N2138    N        0.35165    0.13428    0.51231    1.000
    N2139    N        0.39685    0.14878    0.57047    1.000
    Si2140   Si       0.36356    0.16704    0.59034    1.000
    N2141    N        0.38174    0.23893    0.57221    1.000
    N2142    N        0.36903    0.24480    0.51053    1.000
    Si2143   Si       0.39171    0.14953    0.52775    1.000
    Si2144   Si       0.34548    0.23014    0.54675    1.000
    Si2145   Si       0.38135    0.23456    0.61777    1.000
    N2146    N        0.34297    0.18716    0.55522    1.000
    N2147    N        0.39852    0.18178    0.49810    1.000
    Si2148   Si       0.39813    0.09744    0.68029    1.000
    N2149    N        0.37330    0.06731    0.70166    1.000
    Si2150   Si       0.35338    0.04021    0.64076    1.000
    Si2151   Si       0.38274    0.02257    0.70655    1.000
    N2152    N        0.37299    0.12958    0.66226    1.000
    N2153    N        0.37998    0.01403    0.66334    1.000
    N2154    N        0.34870    0.25218    0.64328    1.000
    Si2155   Si       0.38402    0.21565    0.71279    1.000
    N2156    N        0.37873    0.19117    0.62309    1.000
    Si2157   Si       0.39745    0.16715    0.65413    1.000
    N2158    N        0.38189    0.06751    0.81801    1.000
    Si2159   Si       0.38677    0.10513    0.84075    1.000
    N2160    N        0.34986    0.12646    0.84613    1.000
    N2161    N        0.36324    0.23703    0.80839    1.000
    Si2162   Si       0.35630    0.19234    0.81591    1.000
    N2163    N        0.39866    0.18573    0.80751    1.000
    N2164    N        0.34503    0.19521    0.85748    1.000
    Si2165   Si       0.38472    0.07680    0.96017    1.000
    Si2166   Si       0.39853    0.01076    0.92071    1.000
    N2167    N        0.34358    0.07596    0.94464    1.000
    Si2168   Si       0.40047    0.20054    0.90322    1.000
    N2169    N        0.35515    0.19273    0.98644    1.000
    N2170    N        0.38944    0.15989    0.89477    1.000
    N2171    N        0.36921    0.22336    0.92291    1.000
    Si2172   Si       0.35031    0.15694    0.87828    1.000
    Si2173   Si       0.36672    0.22968    0.96772    1.000
    N2174    N        0.36800    0.27343    0.08732    1.000
    N2175    N        0.36485    0.34239    0.07453    1.000
    Si2176   Si       0.38097    0.32054    0.00890    1.000
    Si2177   Si       0.39070    0.30617    0.07419    1.000
    Si2178   Si       0.36640    0.37784    0.04725    1.000
    N2179    N        0.39626    0.36226    0.02090    1.000
    N2180    N        0.34481    0.29725    0.02631    1.000
    N2181    N        0.35941    0.49043    0.06069    1.000
    N2182    N        0.37464    0.41533    0.06819    1.000
    Si2183   Si       0.38653    0.41556    0.11036    1.000
    Si2184   Si       0.35063    0.44791    0.05319    1.000
    Si2185   Si       0.39118    0.50503    0.03610    1.000
    N2186    N        0.39885    0.47758    0.99903    1.000
    N2187    N        0.38711    0.32297    0.23659    1.000
    N2188    N        0.35708    0.35970    0.13592    1.000
    Si2189   Si       0.37361    0.34214    0.19875    1.000
    Si2190   Si       0.39982    0.34856    0.13401    1.000
    N2191    N        0.34801    0.42490    0.13643    1.000
    Si2192   Si       0.39338    0.47532    0.20807    1.000
    N2193    N        0.35169    0.48712    0.19290    1.000
    N2194    N        0.37719    0.38599    0.19539    1.000
    Si2195   Si       0.38396    0.40191    0.23652    1.000
    N2196    N        0.39014    0.44594    0.24078    1.000
    Si2197   Si       0.34643    0.39234    0.16479    1.000
    N2198    N        0.36144    0.31410    0.35260    1.000
    Si2199   Si       0.37005    0.33963    0.27247    1.000
    Si2200   Si       0.38135    0.35287    0.34775    1.000
    N2201    N        0.39239    0.35496    0.30604    1.000
    N2202    N        0.35223    0.37484    0.25416    1.000
    N2203    N        0.34594    0.30624    0.28403    1.000
    N2204    N        0.36819    0.39428    0.35864    1.000
    Si2205   Si       0.37300    0.43204    0.33796    1.000
    Si2206   Si       0.35170    0.49202    0.29727    1.000
    N2207    N        0.39346    0.49626    0.29230    1.000
    N2208    N        0.38066    0.46596    0.36553    1.000
    Si2209   Si       0.35390    0.49897    0.36699    1.000
    Si2210   Si       0.39732    0.29543    0.36752    1.000
    N2211    N        0.36590    0.33695    0.48005    1.000
    N2212    N        0.38793    0.27002    0.40300    1.000
    Si2213   Si       0.35686    0.29541    0.49800    1.000
    N2214    N        0.38821    0.38611    0.42231    1.000
    N2215    N        0.38874    0.44877    0.47481    1.000
    Si2216   Si       0.35371    0.38992    0.39883    1.000
    Si2217   Si       0.35000    0.43817    0.48891    1.000
    N2218    N        0.34410    0.39680    0.48660    1.000
    N2219    N        0.36064    0.36150    0.54766    1.000
    N2220    N        0.35475    0.30262    0.59571    1.000
    N2221    N        0.38374    0.29961    0.53378    1.000
    Si2222   Si       0.38361    0.32938    0.61661    1.000
    Si2223   Si       0.39813    0.33737    0.54785    1.000
    N2224    N        0.36798    0.36912    0.61890    1.000
    Si2225   Si       0.35923    0.38943    0.58078    1.000
    Si2226   Si       0.36857    0.45800    0.55724    1.000
    N2227    N        0.38520    0.42230    0.57535    1.000
    N2228    N        0.39328    0.32521    0.73287    1.000
    N2229    N        0.38592    0.37680    0.69046    1.000
    Si2230   Si       0.37232    0.33719    0.69470    1.000
    N2231    N        0.38897    0.31690    0.65882    1.000
    N2232    N        0.37235    0.45848    0.70597    1.000
    N2233    N        0.39392    0.43130    0.64313    1.000
    Si2234   Si       0.37204    0.39562    0.65487    1.000
    Si2235   Si       0.37632    0.49452    0.72931    1.000
    N2236    N        0.36397    0.35464    0.79106    1.000
    Si2237   Si       0.37897    0.31756    0.77362    1.000
    N2238    N        0.38600    0.34025    0.87000    1.000
    Si2239   Si       0.35356    0.31215    0.87156    1.000
    N2240    N        0.36570    0.26983    0.87332    1.000
    Si2241   Si       0.39351    0.38538    0.79380    1.000
    N2242    N        0.39820    0.46944    0.84652    1.000
    Si2243   Si       0.35972    0.48839    0.85514    1.000
    N2244    N        0.38318    0.40973    0.82713    1.000
    N2245    N        0.38344    0.47084    0.76618    1.000
    Si2246   Si       0.36766    0.43192    0.74847    1.000
    N2247    N        0.39907    0.40344    0.75377    1.000
    Si2248   Si       0.39914    0.48541    0.80532    1.000
    N2249    N        0.35982    0.37280    0.93006    1.000
    Si2250   Si       0.39333    0.36936    0.90171    1.000
    N2251    N        0.38333    0.31704    0.96721    1.000
    Si2252   Si       0.34858    0.33478    0.94664    1.000
    Si2253   Si       0.34293    0.26069    0.91616    1.000
    N2254    N        0.35041    0.50825    0.89024    1.000
    N2255    N        0.36251    0.43895    0.94643    1.000
    Si2256   Si       0.36190    0.46859    0.97907    1.000
    N2257    N        0.35508    0.50860    0.96384    1.000
    Si2258   Si       0.40217    0.43884    0.92936    1.000
    N2259    N        0.37405    0.54406    0.02491    1.000
    Si2260   Si       0.36443    0.57615    0.05326    1.000
    N2261    N        0.39849    0.59918    0.06551    1.000
    Si2262   Si       0.35473    0.74047    0.04804    1.000
    N2263    N        0.37731    0.65728    0.03653    1.000
    N2264    N        0.39451    0.73078    0.02988    1.000
    N2265    N        0.34664    0.71879    0.08518    1.000
    Si2266   Si       0.37528    0.71522    0.11805    1.000
    N2267    N        0.34705    0.65551    0.10689    1.000
    N2268    N        0.40138    0.74970    0.11453    1.000
    N2269    N        0.35901    0.60410    0.13743    1.000
    Si2270   Si       0.36598    0.60305    0.18105    1.000
    N2271    N        0.39411    0.51629    0.14508    1.000
    N2272    N        0.39761    0.57215    0.18515    1.000
    Si2273   Si       0.35174    0.51369    0.15640    1.000
    N2274    N        0.39707    0.75185    0.22644    1.000
    Si2275   Si       0.38531    0.71123    0.23796    1.000
    Si2276   Si       0.38296    0.64221    0.13057    1.000
    N2277    N        0.34622    0.70102    0.22071    1.000
    Si2278   Si       0.34868    0.67990    0.18225    1.000
    N2279    N        0.38012    0.64946    0.17756    1.000
    N2280    N        0.34937    0.71362    0.15348    1.000
    Si2281   Si       0.35892    0.55571    0.33858    1.000
    N2282    N        0.37379    0.62887    0.25986    1.000
    Si2283   Si       0.36711    0.63082    0.35226    1.000
    N2284    N        0.39763    0.56016    0.31967    1.000
    N2285    N        0.34261    0.59491    0.34409    1.000
    Si2286   Si       0.39113    0.65713    0.28949    1.000
    Si2287   Si       0.35660    0.70504    0.31098    1.000
    N2288    N        0.36549    0.66364    0.32299    1.000
    N2289    N        0.38582    0.69914    0.27900    1.000
    N2290    N        0.36958    0.74233    0.33106    1.000
    N2291    N        0.37486    0.53786    0.37396    1.000
    N2292    N        0.38174    0.60553    0.47821    1.000
    N2293    N        0.36231    0.54306    0.44138    1.000
    Si2294   Si       0.35709    0.56931    0.47361    1.000
    Si2295   Si       0.39348    0.53852    0.41327    1.000
    N2296    N        0.35336    0.65054    0.38706    1.000
    N2297    N        0.35557    0.71931    0.42321    1.000
    Si2298   Si       0.37201    0.64925    0.47376    1.000
    Si2299   Si       0.38858    0.71787    0.45214    1.000
    N2300    N        0.36878    0.72258    0.49172    1.000
    N2301    N        0.40046    0.67536    0.45571    1.000
    N2302    N        0.35292    0.55560    0.51511    1.000
    Si2303   Si       0.39036    0.56143    0.53205    1.000
    N2304    N        0.34756    0.61310    0.57199    1.000
    Si2305   Si       0.38046    0.63123    0.55048    1.000
    Si2306   Si       0.35736    0.69202    0.58925    1.000
    N2307    N        0.37358    0.65725    0.51764    1.000
    Si2308   Si       0.38686    0.69591    0.52677    1.000
    N2309    N        0.39111    0.66284    0.57933    1.000
    N2310    N        0.35273    0.71314    0.55079    1.000
    N2311    N        0.36196    0.57735    0.71284    1.000
    Si2312   Si       0.37065    0.60230    0.67781    1.000
    N2313    N        0.36957    0.59041    0.63660    1.000
    N2314    N        0.36131    0.51494    0.64163    1.000
    Si2315   Si       0.39726    0.56658    0.73598    1.000
    Si2316   Si       0.37693    0.73697    0.65635    1.000
    N2317    N        0.38886    0.71168    0.68907    1.000
    N2318    N        0.35707    0.70999    0.62918    1.000
    Si2319   Si       0.39642    0.67013    0.67978    1.000
    N2320    N        0.36242    0.64343    0.68766    1.000
    Si2321   Si       0.40068    0.72895    0.72821    1.000
    Si2322   Si       0.37685    0.55455    0.81591    1.000
    N2323    N        0.37409    0.55881    0.77282    1.000
    Si2324   Si       0.35765    0.60627    0.86391    1.000
    N2325    N        0.36757    0.51273    0.82060    1.000
    N2326    N        0.34550    0.58213    0.82952    1.000
    N2327    N        0.38167    0.70186    0.75884    1.000
    N2328    N        0.38706    0.66279    0.81325    1.000
    N2329    N        0.34748    0.64894    0.85919    1.000
    Si2330   Si       0.34401    0.65886    0.81577    1.000
    N2331    N        0.39656    0.55302    0.92011    1.000
    N2332    N        0.39144    0.62658    0.94786    1.000
    Si2333   Si       0.37536    0.58908    0.93367    1.000
    Si2334   Si       0.37716    0.51108    0.92445    1.000
    Si2335   Si       0.34604    0.54214    0.99096    1.000
    N2336    N        0.34266    0.60548    0.90494    1.000
    N2337    N        0.39437    0.68863    0.97992    1.000
    Si2338   Si       0.35952    0.71180    0.90368    1.000
    N2339    N        0.34724    0.67574    0.92558    1.000
    N2340    N        0.39255    0.69949    0.87577    1.000
    Si2341   Si       0.36728    0.66058    0.96255    1.000
    N2342    N        0.37785    0.74131    0.93039    1.000
    N2343    N        0.36345    0.78235    0.06255    1.000
    Si2344   Si       0.36756    0.81071    0.02692    1.000
    N2345    N        0.36094    0.85225    0.03420    1.000
    Si2346   Si       0.39348    0.87904    0.03859    1.000
    N2347    N        0.38922    0.89089    0.08237    1.000
    Si2348   Si       0.35724    0.90697    0.10707    1.000
    N2349    N        0.35686    0.94676    0.08604    1.000
    N2350    N        0.37949    0.91757    0.02369    1.000
    Si2351   Si       0.38945    0.94504    0.05623    1.000
    N2352    N        0.38969    0.98726    0.04981    1.000
    Si2353   Si       0.34861    0.99326    0.06923    1.000
    N2354    N        0.35879    0.84101    0.15070    1.000
    N2355    N        0.36309    0.81825    0.22224    1.000
    Si2356   Si       0.37986    0.78384    0.20255    1.000
    Si2357   Si       0.38128    0.85430    0.23717    1.000
    Si2358   Si       0.34773    0.87803    0.17027    1.000
    Si2359   Si       0.34993    0.98585    0.23441    1.000
    N2360    N        0.36476    0.95318    0.20755    1.000
    N2361    N        0.36726    0.91032    0.14828    1.000
    N2362    N        0.36072    0.88448    0.21206    1.000
    Si2363   Si       0.38940    0.91817    0.21881    1.000
    N2364    N        0.39872    0.97050    0.15073    1.000
    Si2365   Si       0.36144    0.95097    0.16340    1.000
    Si2366   Si       0.39347    0.00892    0.12818    1.000
    N2367    N        0.37595    0.85303    0.27946    1.000
    Si2368   Si       0.35767    0.83219    0.31294    1.000
    N2369    N        0.38952    0.81866    0.33880    1.000
    N2370    N        0.38334    0.91653    0.32159    1.000
    Si2371   Si       0.35800    0.93314    0.28603    1.000
    N2372    N        0.36007    0.97483    0.27502    1.000
    N2373    N        0.39216    0.91395    0.26135    1.000
    Si2374   Si       0.37726    0.00366    0.30445    1.000
    N2375    N        0.36693    0.95485    0.37038    1.000
    Si2376   Si       0.40038    0.88634    0.29340    1.000
    Si2377   Si       0.34473    0.90683    0.34632    1.000
    Si2378   Si       0.38688    0.80179    0.37858    1.000
    Si2379   Si       0.38692    0.86504    0.42879    1.000
    N2380    N        0.35015    0.78661    0.45477    1.000
    N2381    N        0.34729    0.78452    0.38469    1.000
    N2382    N        0.39945    0.83043    0.40769    1.000
    N2383    N        0.34446    0.86192    0.43337    1.000
    N2384    N        0.35312    0.83626    0.49595    1.000
    Si2385   Si       0.39014    0.00366    0.45595    1.000
    N2386    N        0.39555    0.90642    0.41945    1.000
    Si2387   Si       0.37555    0.94427    0.41221    1.000
    N2388    N        0.34604    0.00845    0.45347    1.000
    N2389    N        0.33781    0.93846    0.43490    1.000
    Si2390   Si       0.36129    0.85842    0.60532    1.000
    Si2391   Si       0.38653    0.79189    0.60864    1.000
    N2392    N        0.34963    0.84056    0.56531    1.000
    N2393    N        0.34264    0.78256    0.60582    1.000
    Si2394   Si       0.36858    0.79414    0.49591    1.000
    N2395    N        0.40300    0.78179    0.57070    1.000
    N2396    N        0.34699    0.90074    0.53430    1.000
    Si2397   Si       0.38499    0.90085    0.55255    1.000
    N2398    N        0.38165    0.89531    0.59426    1.000
    Si2399   Si       0.38179    0.97056    0.57491    1.000
    N2400    N        0.39579    0.96084    0.61573    1.000
    N2401    N        0.39873    0.94408    0.54646    1.000
    N2402    N        0.39297    0.01097    0.55917    1.000
    N2403    N        0.39276    0.83236    0.62158    1.000
    Si2404   Si       0.36579    0.85912    0.71314    1.000
    N2405    N        0.38985    0.77235    0.72431    1.000
    Si2406   Si       0.34711    0.77059    0.71240    1.000
    N2407    N        0.34347    0.76342    0.67027    1.000
    N2408    N        0.39761    0.83592    0.69332    1.000
    N2409    N        0.37608    0.94916    0.70495    1.000
    N2410    N        0.39065    0.88904    0.73716    1.000
    N2411    N        0.34869    0.89024    0.69074    1.000
    Si2412   Si       0.39537    0.90814    0.69600    1.000
    N2413    N        0.35599    0.00479    0.73616    1.000
    N2414    N        0.35558    0.85154    0.81223    1.000
    Si2415   Si       0.38145    0.85746    0.77422    1.000
    Si2416   Si       0.38914    0.86439    0.83578    1.000
    N2417    N        0.35051    0.84355    0.74909    1.000
    N2418    N        0.36163    0.95402    0.79228    1.000
    N2419    N        0.38819    0.89949    0.85894    1.000
    Si2420   Si       0.36318    0.96125    0.74766    1.000
    N2421    N        0.36911    0.78152    0.87197    1.000
    N2422    N        0.35951    0.81169    0.93617    1.000
    Si2423   Si       0.36276    0.85623    0.93640    1.000
    Si2424   Si       0.37876    0.78066    0.91461    1.000
    N2425    N        0.35418    0.87570    0.97419    1.000
    Si2426   Si       0.35391    0.91352    0.88210    1.000
    N2427    N        0.35182    0.95042    0.97138    1.000
    N2428    N        0.37148    0.93960    0.91061    1.000
    N2429    N        0.35713    0.00696    0.92679    1.000
    Si2430   Si       0.37122    0.91471    0.98326    1.000
    N2431    N        0.42298    0.11143    0.01721    1.000
    N2432    N        0.43300    0.04015    0.03095    1.000
    N2433    N        0.42449    0.02179    0.09858    1.000
    Si2434   Si       0.44930    0.12597    0.11863    1.000
    Si2435   Si       0.45734    0.04671    0.11331    1.000
    Si2436   Si       0.40512    0.07457    0.02977    1.000
    N2437    N        0.42513    0.13816    0.08421    1.000
    N2438    N        0.45349    0.24077    0.02888    1.000
    N2439    N        0.41411    0.17979    0.02639    1.000
    Si2440   Si       0.41523    0.22296    0.02493    1.000
    Si2441   Si       0.43423    0.14528    0.04265    1.000
    N2442    N        0.41397    0.21455    0.09715    1.000
    Si2443   Si       0.45495    0.22114    0.10136    1.000
    N2444    N        0.43940    0.08431    0.12684    1.000
    N2445    N        0.43321    0.08816    0.19417    1.000
    Si2446   Si       0.42980    0.06036    0.16238    1.000
    Si2447   Si       0.45874    0.12485    0.18866    1.000
    Si2448   Si       0.43813    0.17811    0.23743    1.000
    N2449    N        0.45617    0.13882    0.22707    1.000
    Si2450   Si       0.44526    0.19173    0.16690    1.000
    N2451    N        0.45675    0.20131    0.20757    1.000
    N2452    N        0.43989    0.14752    0.15665    1.000
    N2453    N        0.40294    0.19652    0.16769    1.000
    N2454    N        0.41991    0.10813    0.32678    1.000
    Si2455   Si       0.41448    0.07502    0.29934    1.000
    N2456    N        0.45001    0.05150    0.30541    1.000
    N2457    N        0.40591    0.08905    0.25747    1.000
    Si2458   Si       0.45960    0.12528    0.33522    1.000
    Si2459   Si       0.44700    0.19480    0.31288    1.000
    N2460    N        0.40422    0.20542    0.31880    1.000
    N2461    N        0.45633    0.16700    0.34390    1.000
    Si2462   Si       0.40090    0.19296    0.36203    1.000
    N2463    N        0.42389    0.11322    0.45057    1.000
    N2464    N        0.41469    0.03836    0.44654    1.000
    Si2465   Si       0.45586    0.03212    0.43157    1.000
    Si2466   Si       0.40760    0.13222    0.40586    1.000
    Si2467   Si       0.41881    0.15485    0.46725    1.000
    N2468    N        0.43115    0.20888    0.38972    1.000
    Si2469   Si       0.42299    0.24589    0.41468    1.000
    Si2470   Si       0.45338    0.25079    0.48405    1.000
    N2471    N        0.45106    0.13966    0.40263    1.000
    N2472    N        0.42072    0.23590    0.45660    1.000
    N2473    N        0.42593    0.08997    0.58276    1.000
    Si2474   Si       0.41785    0.08678    0.53955    1.000
    N2475    N        0.44103    0.05457    0.52132    1.000
    N2476    N        0.42675    0.12363    0.51784    1.000
    Si2477   Si       0.42541    0.01528    0.52855    1.000
    Si2478   Si       0.41681    0.06069    0.61337    1.000
    Si2479   Si       0.43044    0.13201    0.59339    1.000
    N2480    N        0.43859    0.24616    0.52363    1.000
    N2481    N        0.43304    0.02066    0.62072    1.000
    N2482    N        0.42353    0.07726    0.65159    1.000
    N2483    N        0.42293    0.11565    0.71235    1.000
    Si2484   Si       0.45024    0.08870    0.73193    1.000
    N2485    N        0.41906    0.00702    0.72273    1.000
    Si2486   Si       0.42995    0.15806    0.71844    1.000
    N2487    N        0.40231    0.18215    0.69389    1.000
    N2488    N        0.40112    0.25058    0.69357    1.000
    N2489    N        0.43067    0.14882    0.63503    1.000
    Si2490   Si       0.43136    0.25406    0.72795    1.000
    Si2491   Si       0.42205    0.07410    0.80358    1.000
    N2492    N        0.44040    0.06208    0.76544    1.000
    N2493    N        0.44975    0.05939    0.83554    1.000
    N2494    N        0.41915    0.11643    0.81068    1.000
    Si2495   Si       0.44189    0.01930    0.76181    1.000
    N2496    N        0.42370    0.00490    0.80116    1.000
    N2497    N        0.44310    0.16199    0.76021    1.000
    Si2498   Si       0.43110    0.15584    0.80196    1.000
    N2499    N        0.43946    0.24217    0.80745    1.000
    Si2500   Si       0.44881    0.21487    0.84352    1.000
    N2501    N        0.45562    0.17270    0.83596    1.000
    Si2502   Si       0.40196    0.22640    0.79293    1.000
    N2503    N        0.41728    0.22494    0.87188    1.000
    N2504    N        0.40231    0.22733    0.75052    1.000
    N2505    N        0.40709    0.09593    0.87727    1.000
    N2506    N        0.40715    0.11434    0.94945    1.000
    Si2507   Si       0.43045    0.05969    0.87561    1.000
    Si2508   Si       0.45383    0.04880    0.94778    1.000
    N2509    N        0.41064    0.04667    0.94625    1.000
    N2510    N        0.41304    0.02024    0.87908    1.000
    Si2511   Si       0.44048    0.11511    0.97868    1.000
    Si2512   Si       0.41404    0.12488    0.90831    1.000
    N2513    N        0.40497    0.23810    0.98432    1.000
    N2514    N        0.43314    0.20203    0.93278    1.000
    N2515    N        0.45673    0.13602    0.91112    1.000
    Si2516   Si       0.43712    0.24195    0.95343    1.000
    Si2517   Si       0.44633    0.28422    0.01932    1.000
    N2518    N        0.40766    0.29795    0.03632    1.000
    N2519    N        0.41607    0.31733    0.10686    1.000
    N2520    N        0.45664    0.36723    0.06474    1.000
    Si2521   Si       0.43626    0.38005    0.02844    1.000
    N2522    N        0.43281    0.42350    0.03243    1.000
    Si2523   Si       0.43205    0.44778    0.06925    1.000
    N2524    N        0.42759    0.49084    0.05680    1.000
    N2525    N        0.40880    0.45262    0.10909    1.000
    Si2526   Si       0.46142    0.38794    0.10235    1.000
    Si2527   Si       0.43555    0.45215    0.99973    1.000
    N2528    N        0.45060    0.29812    0.22213    1.000
    Si2529   Si       0.40988    0.28497    0.23634    1.000
    N2530    N        0.40696    0.33128    0.17331    1.000
    Si2531   Si       0.44906    0.32750    0.18800    1.000
    Si2532   Si       0.44229    0.28897    0.12764    1.000
    N2533    N        0.42121    0.26205    0.15107    1.000
    N2534    N        0.41703    0.38683    0.11863    1.000
    N2535    N        0.46142    0.49303    0.12987    1.000
    N2536    N        0.42586    0.46578    0.18136    1.000
    Si2537   Si       0.41868    0.48062    0.14177    1.000
    N2538    N        0.41150    0.26929    0.33710    1.000
    Si2539   Si       0.44207    0.26754    0.30555    1.000
    N2540    N        0.40787    0.26774    0.27646    1.000
    Si2541   Si       0.45422    0.35293    0.35263    1.000
    N2542    N        0.45920    0.37431    0.31445    1.000
    N2543    N        0.42262    0.38601    0.25279    1.000
    Si2544   Si       0.42067    0.38673    0.29656    1.000
    N2545    N        0.45046    0.48318    0.35591    1.000
    N2546    N        0.45073    0.46591    0.28317    1.000
    Si2547   Si       0.40750    0.45614    0.27981    1.000
    N2548    N        0.40508    0.42398    0.30822    1.000
    N2549    N        0.41585    0.33687    0.37141    1.000
    N2550    N        0.45155    0.38289    0.38384    1.000
    N2551    N        0.42688    0.33454    0.44202    1.000
    Si2552   Si       0.41946    0.36166    0.40804    1.000
    N2553    N        0.45192    0.27968    0.40887    1.000
    Si2554   Si       0.40500    0.35393    0.47646    1.000
    N2555    N        0.42959    0.43949    0.41342    1.000
    N2556    N        0.41852    0.50384    0.41487    1.000
    N2557    N        0.42676    0.39436    0.46955    1.000
    N2558    N        0.44705    0.49232    0.48262    1.000
    Si2559   Si       0.40496    0.42195    0.44514    1.000
    Si2560   Si       0.41876    0.47174    0.38474    1.000
    Si2561   Si       0.45545    0.50297    0.44009    1.000
    N2562    N        0.42324    0.35622    0.51767    1.000
    N2563    N        0.41374    0.33755    0.58771    1.000
    Si2564   Si       0.40057    0.25936    0.53919    1.000
    Si2565   Si       0.45711    0.33767    0.59669    1.000
    Si2566   Si       0.44665    0.39332    0.50769    1.000
    Si2567   Si       0.40898    0.44106    0.60586    1.000
    N2568    N        0.44340    0.43457    0.52380    1.000
    N2569    N        0.44969    0.42923    0.59395    1.000
    N2570    N        0.40820    0.48383    0.60289    1.000
    Si2571   Si       0.42226    0.50433    0.56616    1.000
    Si2572   Si       0.41787    0.46478    0.50434    1.000
    N2573    N        0.39560    0.48357    0.53601    1.000
    Si2574   Si       0.41243    0.27925    0.66339    1.000
    N2575    N        0.45106    0.35741    0.72184    1.000
    Si2576   Si       0.43589    0.31825    0.72449    1.000
    N2577    N        0.44532    0.29473    0.68835    1.000
    N2578    N        0.41719    0.25625    0.62644    1.000
    Si2579   Si       0.43847    0.50629    0.70581    1.000
    N2580    N        0.43483    0.42141    0.69954    1.000
    N2581    N        0.45360    0.47539    0.73237    1.000
    N2582    N        0.42259    0.48621    0.67109    1.000
    Si2583   Si       0.41681    0.38591    0.71776    1.000
    Si2584   Si       0.40740    0.44816    0.68013    1.000
    Si2585   Si       0.40294    0.50786    0.63807    1.000
    N2586    N        0.43540    0.29509    0.86057    1.000
    N2587    N        0.42751    0.36652    0.81429    1.000
    Si2588   Si       0.44276    0.28367    0.79555    1.000
    Si2589   Si       0.41546    0.33179    0.84027    1.000
    N2590    N        0.44319    0.28691    0.75216    1.000
    N2591    N        0.40503    0.30524    0.80669    1.000
    Si2592   Si       0.41132    0.42868    0.85626    1.000
    N2593    N        0.45371    0.42181    0.85057    1.000
    N2594    N        0.43976    0.50109    0.79848    1.000
    N2595    N        0.46119    0.49737    0.86336    1.000
    Si2596   Si       0.40973    0.26600    0.88007    1.000
    Si2597   Si       0.41901    0.31045    0.94697    1.000
    N2598    N        0.42423    0.35116    0.92809    1.000
    N2599    N        0.41952    0.27174    0.92321    1.000
    N2600    N        0.44626    0.29356    0.97770    1.000
    N2601    N        0.45865    0.36929    0.99175    1.000
    Si2602   Si       0.44907    0.49271    0.90513    1.000
    N2603    N        0.40886    0.48220    0.91861    1.000
    Si2604   Si       0.44248    0.38646    0.95546    1.000
    N2605    N        0.40409    0.41208    0.89677    1.000
    N2606    N        0.42850    0.42683    0.96327    1.000
    N2607    N        0.42738    0.61598    0.00688    1.000
    Si2608   Si       0.43390    0.59189    0.09419    1.000
    N2609    N        0.44751    0.54877    0.01848    1.000
    N2610    N        0.44379    0.55938    0.11705    1.000
    N2611    N        0.42468    0.62474    0.12089    1.000
    Si2612   Si       0.41264    0.63368    0.04507    1.000
    Si2613   Si       0.45940    0.58952    0.01961    1.000
    Si2614   Si       0.40141    0.68988    0.02312    1.000
    N2615    N        0.43613    0.67230    0.04599    1.000
    N2616    N        0.45104    0.54250    0.18539    1.000
    Si2617   Si       0.41974    0.55145    0.21489    1.000
    N2618    N        0.43486    0.62527    0.21698    1.000
    Si2619   Si       0.41990    0.54968    0.15345    1.000
    N2620    N        0.40472    0.51226    0.22505    1.000
    N2621    N        0.42132    0.69307    0.22280    1.000
    Si2622   Si       0.43861    0.73552    0.21955    1.000
    N2623    N        0.44681    0.73360    0.17454    1.000
    Si2624   Si       0.44268    0.66370    0.12857    1.000
    Si2625   Si       0.41935    0.65915    0.19666    1.000
    N2626    N        0.40515    0.68419    0.12466    1.000
    N2627    N        0.45770    0.66397    0.17161    1.000
    Si2628   Si       0.43189    0.76069    0.14243    1.000
    Si2629   Si       0.41344    0.53653    0.28573    1.000
    N2630    N        0.41739    0.56816    0.25482    1.000
    N2631    N        0.40746    0.61582    0.35862    1.000
    Si2632   Si       0.41548    0.57158    0.36054    1.000
    Si2633   Si       0.41389    0.61097    0.25287    1.000
    N2634    N        0.45445    0.52923    0.30150    1.000
    N2635    N        0.45841    0.57320    0.35087    1.000
    N2636    N        0.42814    0.63614    0.28662    1.000
    Si2637   Si       0.41353    0.74761    0.34044    1.000
    N2638    N        0.44021    0.71093    0.33997    1.000
    Si2639   Si       0.44939    0.62096    0.37363    1.000
    N2640    N        0.41929    0.57106    0.40367    1.000
    N2641    N        0.44064    0.61667    0.45800    1.000
    Si2642   Si       0.44951    0.58313    0.43240    1.000
    Si2643   Si       0.42229    0.59660    0.49404    1.000
    N2644    N        0.41681    0.55232    0.49870    1.000
    Si2645   Si       0.45861    0.53943    0.49406    1.000
    Si2646   Si       0.43768    0.65867    0.44044    1.000
    N2647    N        0.41865    0.74855    0.45097    1.000
    Si2648   Si       0.45958    0.69538    0.37651    1.000
    N2649    N        0.44240    0.66204    0.39831    1.000
    N2650    N        0.43072    0.60724    0.60330    1.000
    Si2651   Si       0.43936    0.58139    0.56877    1.000
    N2652    N        0.41332    0.54553    0.56591    1.000
    N2653    N        0.41177    0.60169    0.53929    1.000
    Si2654   Si       0.42602    0.65124    0.60327    1.000
    N2655    N        0.42950    0.70037    0.52830    1.000
    N2656    N        0.46132    0.67066    0.58338    1.000
    N2657    N        0.45996    0.74593    0.59279    1.000
    Si2658   Si       0.41495    0.58513    0.63698    1.000
    Si2659   Si       0.44006    0.61803    0.71004    1.000
    N2660    N        0.42749    0.54283    0.63835    1.000
    N2661    N        0.41735    0.59718    0.67959    1.000
    N2662    N        0.40604    0.52640    0.72206    1.000
    N2663    N        0.42693    0.59699    0.74574    1.000
    Si2664   Si       0.45925    0.67862    0.66785    1.000
    N2665    N        0.41987    0.66799    0.64358    1.000
    N2666    N        0.43533    0.66006    0.70013    1.000
    Si2667   Si       0.44990    0.75607    0.63459    1.000
    Si2668   Si       0.46023    0.68123    0.73379    1.000
    N2669    N        0.44224    0.72321    0.73173    1.000
    N2670    N        0.41605    0.55645    0.83345    1.000
    Si2671   Si       0.43196    0.59068    0.85122    1.000
    Si2672   Si       0.44898    0.52653    0.83357    1.000
    Si2673   Si       0.44770    0.61614    0.77843    1.000
    N2674    N        0.45149    0.61575    0.82119    1.000
    N2675    N        0.39893    0.61520    0.86686    1.000
    N2676    N        0.43472    0.71825    0.80008    1.000
    N2677    N        0.43765    0.65763    0.76424    1.000
    Si2678   Si       0.41042    0.68357    0.78511    1.000
    N2679    N        0.44179    0.66708    0.86499    1.000
    Si2680   Si       0.45663    0.74201    0.83025    1.000
    Si2681   Si       0.39839    0.65848    0.85606    1.000
    N2682    N        0.44873    0.59313    0.94442    1.000
    Si2683   Si       0.43996    0.55977    0.91943    1.000
    Si2684   Si       0.43053    0.62815    0.96572    1.000
    N2685    N        0.45771    0.57028    0.88075    1.000
    Si2686   Si       0.40796    0.72236    0.95686    1.000
    N2687    N        0.43960    0.70629    0.93135    1.000
    Si2688   Si       0.43359    0.70065    0.88838    1.000
    N2689    N        0.41549    0.81430    0.10789    1.000
    N2690    N        0.42995    0.87596    0.01467    1.000
    N2691    N        0.43779    0.77030    0.05912    1.000
    N2692    N        0.45020    0.86595    0.08026    1.000
    Si2693   Si       0.45222    0.84080    0.11361    1.000
    Si2694   Si       0.42196    0.76431    0.01758    1.000
    N2695    N        0.40603    0.80627    0.01051    1.000
    Si2696   Si       0.43779    0.83531    0.99956    1.000
    Si2697   Si       0.40127    0.78085    0.08451    1.000
    Si2698   Si       0.42960    0.90271    0.09060    1.000
    N2699    N        0.43133    0.93443    0.06182    1.000
    Si2700   Si       0.42657    0.00791    0.05790    1.000
    N2701    N        0.45944    0.94625    0.99548    1.000
    Si2702   Si       0.39913    0.82766    0.14760    1.000
    Si2703   Si       0.44206    0.87409    0.19229    1.000
    N2704    N        0.40950    0.79105    0.17045    1.000
    N2705    N        0.42495    0.85747    0.22976    1.000
    N2706    N        0.43258    0.85446    0.15359    1.000
    N2707    N        0.44603    0.92118    0.12580    1.000
    N2708    N        0.42463    0.91568    0.19141    1.000
    Si2709   Si       0.43198    0.94467    0.15981    1.000
    Si2710   Si       0.42956    0.82156    0.32277    1.000
    N2711    N        0.43025    0.77777    0.31223    1.000
    Si2712   Si       0.45398    0.85395    0.26246    1.000
    N2713    N        0.43785    0.86533    0.30260    1.000
    N2714    N        0.45395    0.83243    0.35647    1.000
    N2715    N        0.41272    0.98684    0.31734    1.000
    N2716    N        0.43947    0.95147    0.36668    1.000
    Si2717   Si       0.45159    0.00797    0.30681    1.000
    Si2718   Si       0.40243    0.95261    0.34246    1.000
    N2719    N        0.41113    0.76588    0.38058    1.000
    Si2720   Si       0.44041    0.76776    0.48545    1.000
    N2721    N        0.40820    0.86843    0.46599    1.000
    Si2722   Si       0.43829    0.76006    0.41268    1.000
    N2723    N        0.45870    0.79705    0.42064    1.000
    N2724    N        0.45616    0.93111    0.43029    1.000
    Si2725   Si       0.42568    0.90860    0.45364    1.000
    Si2726   Si       0.44205    0.96438    0.40791    1.000
    N2727    N        0.40457    0.99334    0.49522    1.000
    N2728    N        0.40338    0.97434    0.42662    1.000
    N2729    N        0.43728    0.92017    0.49399    1.000
    Si2730   Si       0.44509    0.78038    0.56588    1.000
    N2731    N        0.41131    0.87243    0.53410    1.000
    N2732    N        0.45892    0.76786    0.52749    1.000
    N2733    N        0.45803    0.81765    0.58542    1.000
    N2734    N        0.45928    0.85069    0.50041    1.000
    N2735    N        0.41194    0.79954    0.49630    1.000
    Si2736   Si       0.41460    0.84341    0.50097    1.000
    Si2737   Si       0.45140    0.88834    0.51928    1.000
    Si2738   Si       0.42112    0.95764    0.51312    1.000
    N2739    N        0.44538    0.91174    0.60553    1.000
    N2740    N        0.45246    0.98017    0.53273    1.000
    Si2741   Si       0.40528    0.91683    0.62042    1.000
    N2742    N        0.45836    0.81048    0.71079    1.000
    Si2743   Si       0.41675    0.84883    0.65458    1.000
    Si2744   Si       0.41628    0.80761    0.72445    1.000
    N2745    N        0.40645    0.76215    0.63564    1.000
    N2746    N        0.43372    0.97239    0.67237    1.000
    Si2747   Si       0.41109    0.99139    0.64322    1.000
    Si2748   Si       0.42073    0.96566    0.71419    1.000
    N2749    N        0.40775    0.89349    0.65662    1.000
    N2750    N        0.43599    0.92258    0.71359    1.000
    N2751    N        0.43351    0.77941    0.83049    1.000
    Si2752   Si       0.44092    0.80514    0.79644    1.000
    N2753    N        0.41320    0.83643    0.85625    1.000
    N2754    N        0.41192    0.82117    0.76667    1.000
    Si2755   Si       0.40859    0.79354    0.86003    1.000
    Si2756   Si       0.45183    0.88004    0.80705    1.000
    N2757    N        0.40889    0.88153    0.80065    1.000
    Si2758   Si       0.42720    0.91948    0.86119    1.000
    N2759    N        0.41911    0.95651    0.83918    1.000
    N2760    N        0.40937    0.95385    0.75724    1.000
    Si2761   Si       0.42154    0.91116    0.75625    1.000
    Si2762   Si       0.43209    0.99805    0.84608    1.000
    Si2763   Si       0.40380    0.96583    0.79878    1.000
    N2764    N        0.40345    0.85996    0.92173    1.000
    Si2765   Si       0.43113    0.83938    0.89728    1.000
    N2766    N        0.42002    0.79517    0.90640    1.000
    Si2767   Si       0.44601    0.78087    0.94078    1.000
    N2768    N        0.45468    0.82112    0.96140    1.000
    N2769    N        0.42834    0.75605    0.97427    1.000
    Si2770   Si       0.41106    0.93973    0.92605    1.000
    N2771    N        0.42416    0.97936    0.93681    1.000
    N2772    N        0.44326    0.92503    0.90036    1.000
    N2773    N        0.40924    0.91740    0.96180    1.000
    Si2774   Si       0.44530    0.90619    0.98381    1.000
    Si2775   Si       0.46000    0.97386    0.96181    1.000
    N2776    N        0.48687    0.06132    0.08810    1.000
    N2777    N        0.51104    0.03084    0.02989    1.000
    Si2778   Si       0.47085    0.02386    0.01669    1.000
    N2779    N        0.49000    0.13866    0.11283    1.000
    N2780    N        0.47599    0.14582    0.04004    1.000
    N2781    N        0.48462    0.20093    0.07565    1.000
    Si2782   Si       0.49299    0.22444    0.03950    1.000
    Si2783   Si       0.49730    0.15786    0.07580    1.000
    N2784    N        0.50592    0.19879    0.00610    1.000
    Si2785   Si       0.49557    0.15572    0.00175    1.000
    N2786    N        0.50067    0.12533    0.17856    1.000
    N2787    N        0.46176    0.03182    0.15455    1.000
    Si2788   Si       0.49551    0.21926    0.21689    1.000
    N2789    N        0.47265    0.20860    0.13943    1.000
    N2790    N        0.51154    0.24347    0.18633    1.000
    Si2791   Si       0.51362    0.21918    0.14867    1.000
    Si2792   Si       0.52014    0.14226    0.14418    1.000
    N2793    N        0.49123    0.09548    0.35196    1.000
    Si2794   Si       0.48680    0.07417    0.31154    1.000
    N2795    N        0.47677    0.11554    0.29640    1.000
    N2796    N        0.51722    0.11829    0.24888    1.000
    Si2797   Si       0.48223    0.13994    0.26177    1.000
    N2798    N        0.46600    0.23282    0.31393    1.000
    Si2799   Si       0.50491    0.23147    0.29337    1.000
    N2800    N        0.49300    0.24168    0.25220    1.000
    N2801    N        0.46179    0.17765    0.27460    1.000
    Si2802   Si       0.46646    0.11066    0.43535    1.000
    Si2803   Si       0.50449    0.08020    0.39298    1.000
    N2804    N        0.48248    0.09669    0.47681    1.000
    N2805    N        0.47905    0.02522    0.46581    1.000
    N2806    N        0.46911    0.07065    0.41594    1.000
    N2807    N        0.51047    0.11714    0.42249    1.000
    Si2808   Si       0.47801    0.05663    0.49502    1.000
    N2809    N        0.46168    0.16050    0.46876    1.000
    N2810    N        0.49960    0.18843    0.41030    1.000
    N2811    N        0.48396    0.21984    0.48666    1.000
    Si2812   Si       0.46314    0.17888    0.38570    1.000
    Si2813   Si       0.49316    0.18836    0.45642    1.000
    N2814    N        0.48454    0.02088    0.57374    1.000
    Si2815   Si       0.50602    0.12634    0.56523    1.000
    Si2816   Si       0.47578    0.01616    0.61670    1.000
    N2817    N        0.51377    0.05159    0.51932    1.000
    N2818    N        0.51302    0.08435    0.58010    1.000
    Si2819   Si       0.46617    0.13115    0.50346    1.000
    N2820    N        0.50206    0.13648    0.52513    1.000
    N2821    N        0.46294    0.22427    0.58277    1.000
    N2822    N        0.47071    0.14538    0.58102    1.000
    Si2823   Si       0.48888    0.18595    0.58698    1.000
    Si2824   Si       0.47488    0.22758    0.53959    1.000
    N2825    N        0.50584    0.19583    0.54707    1.000
    Si2826   Si       0.51397    0.08556    0.62332    1.000
    Si2827   Si       0.46617    0.07469    0.66027    1.000
    N2828    N        0.49532    0.04794    0.63925    1.000
    N2829    N        0.48654    0.11082    0.64690    1.000
    Si2830   Si       0.49260    0.03388    0.71681    1.000
    N2831    N        0.46460    0.06102    0.70096    1.000
    N2832    N        0.49104    0.18194    0.63002    1.000
    N2833    N        0.46788    0.23577    0.71244    1.000
    N2834    N        0.46717    0.16494    0.69473    1.000
    Si2835   Si       0.50884    0.21788    0.64411    1.000
    Si2836   Si       0.46934    0.15057    0.65233    1.000
    N2837    N        0.48336    0.25252    0.64504    1.000
    Si2838   Si       0.48930    0.19828    0.70778    1.000
    Si2839   Si       0.48927    0.07305    0.83571    1.000
    N2840    N        0.49027    0.11029    0.85868    1.000
    N2841    N        0.51645    0.07558    0.80117    1.000
    N2842    N        0.51814    0.04490    0.85526    1.000
    N2843    N        0.48500    0.11097    0.74667    1.000
    Si2844   Si       0.52101    0.09027    0.76128    1.000
    Si2845   Si       0.49313    0.14819    0.83985    1.000
    N2846    N        0.50308    0.14785    0.79801    1.000
    Si2847   Si       0.48525    0.15174    0.75892    1.000
    N2848    N        0.48572    0.22822    0.86200    1.000
    N2849    N        0.51103    0.18232    0.74242    1.000
    N2850    N        0.46186    0.06439    0.90558    1.000
    Si2851   Si       0.48243    0.10230    0.90045    1.000
    Si2852   Si       0.50863    0.09302    0.96780    1.000
    N2853    N        0.46715    0.08159    0.97157    1.000
    N2854    N        0.46863    0.01441    0.97363    1.000
    Si2855   Si       0.50912    0.20138    0.88855    1.000
    N2856    N        0.48207    0.24756    0.95554    1.000
    N2857    N        0.50104    0.19011    0.92921    1.000
    Si2858   Si       0.46302    0.17138    0.93494    1.000
    Si2859   Si       0.51172    0.21466    0.96501    1.000
    N2860    N        0.46294    0.15066    0.97424    1.000
    Si2861   Si       0.48984    0.34021    0.05790    1.000
    N2862    N        0.47782    0.30768    0.03622    1.000
    Si2863   Si       0.50857    0.27132    0.08858    1.000
    N2864    N        0.50885    0.31323    0.09278    1.000
    N2865    N        0.46777    0.26295    0.09896    1.000
    N2866    N        0.51205    0.36888    0.03310    1.000
    N2867    N        0.47140    0.48305    0.00864    1.000
    N2868    N        0.46687    0.42910    0.09247    1.000
    Si2869   Si       0.48442    0.45719    0.12095    1.000
    Si2870   Si       0.51349    0.49256    0.99678    1.000
    N2871    N        0.52191    0.47334    0.10298    1.000
    N2872    N        0.49590    0.37156    0.12811    1.000
    Si2873   Si       0.50660    0.32616    0.13350    1.000
    N2874    N        0.46976    0.31220    0.15379    1.000
    N2875    N        0.46409    0.36807    0.19433    1.000
    Si2876   Si       0.48245    0.28704    0.24672    1.000
    N2877    N        0.51821    0.30352    0.23076    1.000
    N2878    N        0.47171    0.42998    0.22389    1.000
    Si2879   Si       0.46156    0.38852    0.23265    1.000
    Si2880   Si       0.49277    0.38927    0.16839    1.000
    Si2881   Si       0.46825    0.45745    0.19077    1.000
    N2882    N        0.48406    0.43228    0.15768    1.000
    N2883    N        0.49729    0.49112    0.19383    1.000
    N2884    N        0.47790    0.31543    0.34957    1.000
    Si2885   Si       0.50329    0.30446    0.31494    1.000
    N2886    N        0.47027    0.29530    0.28787    1.000
    N2887    N        0.49355    0.36893    0.25312    1.000
    Si2888   Si       0.49825    0.38118    0.29558    1.000
    N2889    N        0.50555    0.42551    0.28815    1.000
    Si2890   Si       0.48337    0.44922    0.26056    1.000
    N2891    N        0.50883    0.48396    0.32583    1.000
    Si2892   Si       0.46659    0.49104    0.31602    1.000
    N2893    N        0.51474    0.48048    0.25668    1.000
    N2894    N        0.47647    0.28721    0.47483    1.000
    N2895    N        0.49332    0.32715    0.41270    1.000
    Si2896   Si       0.48582    0.29524    0.38630    1.000
    Si2897   Si       0.46170    0.31011    0.44126    1.000
    Si2898   Si       0.51475    0.36388    0.42069    1.000
    N2899    N        0.51826    0.26867    0.39110    1.000
    Si2900   Si       0.51380    0.39792    0.47192    1.000
    N2901    N        0.48735    0.47998    0.42027    1.000
    Si2902   Si       0.46737    0.41869    0.40469    1.000
    Si2903   Si       0.48867    0.47920    0.37623    1.000
    N2904    N        0.49017    0.39706    0.43478    1.000
    N2905    N        0.49778    0.43541    0.37836    1.000
    N2906    N        0.48378    0.36427    0.57067    1.000
    N2907    N        0.47102    0.29507    0.59073    1.000
    Si2908   Si       0.50916    0.36356    0.53680    1.000
    Si2909   Si       0.50866    0.29534    0.56797    1.000
    Si2910   Si       0.51165    0.28991    0.50334    1.000
    N2911    N        0.51543    0.32179    0.53201    1.000
    N2912    N        0.50585    0.26027    0.53991    1.000
    Si2913   Si       0.45669    0.25768    0.60996    1.000
    N2914    N        0.48837    0.38378    0.50396    1.000
    Si2915   Si       0.46804    0.44710    0.55780    1.000
    Si2916   Si       0.48232    0.39900    0.59723    1.000
    N2917    N        0.50298    0.42388    0.56443    1.000
    N2918    N        0.46315    0.48915    0.56148    1.000
    Si2919   Si       0.49115    0.36981    0.72806    1.000
    Si2920   Si       0.50462    0.37138    0.65082    1.000
    N2921    N        0.46539    0.36379    0.63051    1.000
    Si2922   Si       0.48430    0.26863    0.68523    1.000
    N2923    N        0.51390    0.37991    0.69244    1.000
    N2924    N        0.51114    0.40840    0.62702    1.000
    Si2925   Si       0.51298    0.48470    0.66590    1.000
    N2926    N        0.49360    0.41124    0.74118    1.000
    Si2927   Si       0.46933    0.43755    0.71638    1.000
    N2928    N        0.50060    0.45042    0.68836    1.000
    N2929    N        0.47702    0.30863    0.80884    1.000
    Si2930   Si       0.47623    0.30761    0.85246    1.000
    Si2931   Si       0.50285    0.34051    0.79232    1.000
    N2932    N        0.46656    0.34960    0.86190    1.000
    N2933    N        0.51124    0.33827    0.74857    1.000
    N2934    N        0.49245    0.38363    0.80120    1.000
    N2935    N        0.51664    0.29167    0.86306    1.000
    Si2936   Si       0.46232    0.38207    0.83396    1.000
    Si2937   Si       0.50659    0.42062    0.78157    1.000
    N2938    N        0.49997    0.46251    0.78962    1.000
    Si2939   Si       0.46948    0.48949    0.77028    1.000
    Si2940   Si       0.48014    0.45549    0.86215    1.000
    N2941    N        0.48162    0.30864    0.91520    1.000
    N2942    N        0.50931    0.32061    0.97454    1.000
    Si2943   Si       0.48479    0.29148    0.95483    1.000
    Si2944   Si       0.46400    0.34706    0.90530    1.000
    Si2945   Si       0.50110    0.35900    0.99225    1.000
    N2946    N        0.47491    0.38374    0.92512    1.000
    Si2947   Si       0.51363    0.45989    0.92830    1.000
    N2948    N        0.47558    0.45791    0.90836    1.000
    Si2949   Si       0.51711    0.38704    0.92707    1.000
    Si2950   Si       0.50693    0.61303    0.06414    1.000
    N2951    N        0.48585    0.52339    0.07057    1.000
    Si2952   Si       0.47607    0.53066    0.11240    1.000
    N2953    N        0.46441    0.60119    0.06117    1.000
    N2954    N        0.51525    0.61649    0.10903    1.000
    Si2955   Si       0.45932    0.51234    0.03749    1.000
    Si2956   Si       0.51864    0.66046    0.10105    1.000
    Si2957   Si       0.47440    0.68333    0.06076    1.000
    N2958    N        0.48673    0.72443    0.04996    1.000
    N2959    N        0.47889    0.67752    0.10722    1.000
    N2960    N        0.51070    0.65749    0.05599    1.000
    Si2961   Si       0.51512    0.73077    0.01367    1.000
    Si2962   Si       0.51581    0.58797    0.14223    1.000
    N2963    N        0.50783    0.54336    0.14022    1.000
    N2964    N        0.49169    0.60042    0.17463    1.000
    Si2965   Si       0.49125    0.53293    0.18052    1.000
    Si2966   Si       0.47386    0.62989    0.19764    1.000
    N2967    N        0.51443    0.71801    0.16161    1.000
    N2968    N        0.50342    0.65119    0.21893    1.000
    N2969    N        0.48523    0.71501    0.22174    1.000
    Si2970   Si       0.47850    0.70096    0.17987    1.000
    Si2971   Si       0.50116    0.75696    0.22341    1.000
    Si2972   Si       0.50428    0.75811    0.14999    1.000
    N2973    N        0.48572    0.60012    0.28906    1.000
    Si2974   Si       0.47471    0.56583    0.31146    1.000
    N2975    N        0.51799    0.56167    0.32667    1.000
    N2976    N        0.47308    0.63945    0.34424    1.000
    Si2977   Si       0.46745    0.63990    0.30008    1.000
    N2978    N        0.48086    0.67747    0.28654    1.000
    N2979    N        0.49914    0.69731    0.35378    1.000
    Si2980   Si       0.47614    0.70797    0.31668    1.000
    N2981    N        0.48736    0.74617    0.30195    1.000
    Si2982   Si       0.51403    0.65443    0.35352    1.000
    Si2983   Si       0.49875    0.68543    0.24946    1.000
    Si2984   Si       0.49947    0.56705    0.37523    1.000
    N2985    N        0.50219    0.52421    0.37515    1.000
    N2986    N        0.47701    0.59932    0.40335    1.000
    Si2987   Si       0.51015    0.59481    0.49326    1.000
    N2988    N        0.51234    0.62541    0.46201    1.000
    Si2989   Si       0.51643    0.61390    0.42094    1.000
    N2990    N        0.46211    0.54474    0.44945    1.000
    N2991    N        0.47993    0.74757    0.47369    1.000
    Si2992   Si       0.48838    0.71944    0.44193    1.000
    N2993    N        0.46507    0.72738    0.40484    1.000
    Si2994   Si       0.50087    0.66189    0.48192    1.000
    N2995    N        0.47233    0.68048    0.45596    1.000
    N2996    N        0.47868    0.56113    0.57326    1.000
    N2997    N        0.49396    0.52686    0.51517    1.000
    Si2998   Si       0.49152    0.52239    0.55865    1.000
    Si2999   Si       0.50603    0.58072    0.60324    1.000
    N3000    N        0.50995    0.62176    0.58817    1.000
    N3001    N        0.46876    0.58370    0.50254    1.000
    N3002    N        0.50126    0.71447    0.54445    1.000
    Si3003   Si       0.50064    0.73190    0.58676    1.000
    Si3004   Si       0.49758    0.66160    0.60497    1.000
    N3005    N        0.49039    0.65495    0.52347    1.000
    Si3006   Si       0.46699    0.68734    0.54318    1.000
    Si3007   Si       0.49579    0.74845    0.51418    1.000
    N3008    N        0.51903    0.70049    0.61203    1.000
    Si3009   Si       0.52059    0.63596    0.54699    1.000
    Si3010   Si       0.51172    0.61130    0.73335    1.000
    Si3011   Si       0.50184    0.61533    0.66295    1.000
    Si3012   Si       0.46845    0.54122    0.65271    1.000
    N3013    N        0.48551    0.58080    0.64120    1.000
    Si3014   Si       0.50624    0.53444    0.71732    1.000
    N3015    N        0.46958    0.53390    0.69357    1.000
    N3016    N        0.48400    0.61504    0.70148    1.000
    N3017    N        0.49280    0.50898    0.63651    1.000
    N3018    N        0.48683    0.65230    0.64580    1.000
    N3019    N        0.49169    0.68770    0.70100    1.000
    N3020    N        0.46054    0.72237    0.65966    1.000
    Si3021   Si       0.48954    0.73017    0.69453    1.000
    N3022    N        0.50520    0.75682    0.72576    1.000
    N3023    N        0.48370    0.55126    0.81962    1.000
    N3024    N        0.48904    0.60163    0.76854    1.000
    Si3025   Si       0.49791    0.56132    0.78067    1.000
    N3026    N        0.49154    0.52540    0.75688    1.000
    Si3027   Si       0.47337    0.64420    0.84640    1.000
    N3028    N        0.49090    0.69885    0.76370    1.000
    N3029    N        0.50658    0.66126    0.82448    1.000
    N3030    N        0.49645    0.73497    0.81289    1.000
    Si3031   Si       0.51479    0.69452    0.79737    1.000
    Si3032   Si       0.46600    0.73437    0.76884    1.000
    Si3033   Si       0.50031    0.58532    0.88687    1.000
    Si3034   Si       0.49021    0.60906    0.95316    1.000
    Si3035   Si       0.50734    0.53279    0.93879    1.000
    N3036    N        0.46440    0.52596    0.93070    1.000
    N3037    N        0.51383    0.57550    0.92724    1.000
    N3038    N        0.49535    0.62729    0.88045    1.000
    N3039    N        0.52090    0.53120    0.98197    1.000
    N3040    N        0.49493    0.59550    0.99432    1.000
    Si3041   Si       0.47902    0.69046    0.94851    1.000
    N3042    N        0.46636    0.65012    0.95824    1.000
    N3043    N        0.49971    0.69399    0.91061    1.000
    N3044    N        0.50986    0.70071    0.98051    1.000
    Si3045   Si       0.49237    0.73347    0.89897    1.000
    N3046    N        0.45728    0.73396    0.87127    1.000
    N3047    N        0.47351    0.83108    0.02527    1.000
    N3048    N        0.50694    0.79181    0.06892    1.000
    Si3049   Si       0.50876    0.80417    0.02735    1.000
    Si3050   Si       0.46708    0.87026    0.04180    1.000
    N3051    N        0.47198    0.76104    0.11919    1.000
    N3052    N        0.51449    0.77127    0.99820    1.000
    Si3053   Si       0.47568    0.76067    0.07454    1.000
    N3054    N        0.50158    0.95178    0.09104    1.000
    N3055    N        0.48989    0.90867    0.04332    1.000
    Si3056   Si       0.51051    0.98727    0.06485    1.000
    N3057    N        0.46677    0.98945    0.04856    1.000
    Si3058   Si       0.46608    0.94582    0.03789    1.000
    N3059    N        0.49443    0.83952    0.12329    1.000
    Si3060   Si       0.50734    0.86623    0.15535    1.000
    N3061    N        0.48650    0.87032    0.19287    1.000
    N3062    N        0.50520    0.77974    0.18690    1.000
    Si3063   Si       0.51822    0.86220    0.22121    1.000
    N3064    N        0.46170    0.76530    0.24068    1.000
    N3065    N        0.47267    0.96401    0.16129    1.000
    Si3066   Si       0.48632    0.93647    0.12877    1.000
    N3067    N        0.51670    0.90750    0.14343    1.000
    N3068    N        0.50678    0.00628    0.21198    1.000
    Si3069   Si       0.49087    0.00275    0.17052    1.000
    N3070    N        0.49457    0.87331    0.25802    1.000
    Si3071   Si       0.46725    0.87484    0.33301    1.000
    N3072    N        0.50819    0.85760    0.32180    1.000
    Si3073   Si       0.51243    0.83129    0.28494    1.000
    N3074    N        0.46932    0.81767    0.28082    1.000
    Si3075   Si       0.46262    0.77382    0.28333    1.000
    N3076    N        0.47892    0.91674    0.31405    1.000
    Si3077   Si       0.47912    0.93517    0.35327    1.000
    Si3078   Si       0.50636    0.90807    0.28114    1.000
    N3079    N        0.46510    0.99228    0.26915    1.000
    Si3080   Si       0.50152    0.98451    0.24803    1.000
    N3081    N        0.50804    0.93984    0.24871    1.000
    N3082    N        0.47241    0.89678    0.37090    1.000
    N3083    N        0.48849    0.00747    0.33106    1.000
    N3084    N        0.51576    0.82023    0.46475    1.000
    N3085    N        0.51248    0.82552    0.39159    1.000
    Si3086   Si       0.48987    0.85500    0.46950    1.000
    N3087    N        0.47339    0.86328    0.43005    1.000
    Si3088   Si       0.46962    0.83245    0.39903    1.000
    Si3089   Si       0.49564    0.00040    0.37304    1.000
    N3090    N        0.51005    0.96067    0.36929    1.000
    Si3091   Si       0.48287    0.90135    0.41190    1.000
    Si3092   Si       0.51393    0.99879    0.47106    1.000
    N3093    N        0.51565    0.88593    0.48189    1.000
    N3094    N        0.46552    0.99976    0.40463    1.000
    N3095    N        0.52123    0.83207    0.60534    1.000
    Si3096   Si       0.48114    0.82560    0.62071    1.000
    Si3097   Si       0.52465    0.88635    0.52637    1.000
    N3098    N        0.48596    0.89483    0.54390    1.000
    Si3099   Si       0.49448    0.98618    0.54536    1.000
    Si3100   Si       0.48222    0.91671    0.58280    1.000
    N3101    N        0.50284    0.95427    0.57333    1.000
    N3102    N        0.50521    0.89418    0.61341    1.000
    N3103    N        0.51531    0.97582    0.50795    1.000
    N3104    N        0.48075    0.78618    0.64215    1.000
    Si3105   Si       0.48314    0.83904    0.68666    1.000
    N3106    N        0.49057    0.86967    0.71512    1.000
    Si3107   Si       0.48623    0.79303    0.74041    1.000
    N3108    N        0.46098    0.85264    0.64981    1.000
    Si3109   Si       0.47769    0.96873    0.66722    1.000
    Si3110   Si       0.47066    0.89563    0.63986    1.000
    N3111    N        0.48293    0.92573    0.66781    1.000
    N3112    N        0.49827    0.98266    0.63180    1.000
    N3113    N        0.50293    0.93552    0.73333    1.000
    N3114    N        0.49943    0.00068    0.68907    1.000
    Si3115   Si       0.47846    0.91080    0.70949    1.000
    N3116    N        0.46688    0.84116    0.80261    1.000
    Si3117   Si       0.51050    0.84087    0.80283    1.000
    Si3118   Si       0.49398    0.87583    0.86835    1.000
    N3119    N        0.46220    0.77690    0.77145    1.000
    N3120    N        0.51410    0.82038    0.75928    1.000
    N3121    N        0.51934    0.80026    0.81945    1.000
    Si3122   Si       0.50171    0.92020    0.77374    1.000
    N3123    N        0.47301    0.99472    0.86117    1.000
    N3124    N        0.51482    0.95741    0.78941    1.000
    N3125    N        0.46223    0.89683    0.84480    1.000
    N3126    N        0.45951    0.90676    0.77512    1.000
    N3127    N        0.48254    0.00695    0.75213    1.000
    Si3128   Si       0.51551    0.97570    0.74724    1.000
    Si3129   Si       0.51613    0.78060    0.95383    1.000
    Si3130   Si       0.48493    0.84751    0.94248    1.000
    N3131    N        0.48388    0.76303    0.93044    1.000
    N3132    N        0.47282    0.85170    0.89854    1.000
    Si3133   Si       0.48076    0.91772    0.92076    1.000
    N3134    N        0.47447    0.88825    0.95520    1.000
    N3135    N        0.51192    0.90714    0.89317    1.000
    Si3136   Si       0.51191    0.00466    0.87187    1.000
    N3137    N        0.49153    0.95480    0.93831    1.000
    N3138    N        0.55228    0.07937    0.06910    1.000
    Si3139   Si       0.55848    0.11595    0.09088    1.000
    N3140    N        0.53453    0.01268    0.08890    1.000
    N3141    N        0.57654    0.03218    0.02338    1.000
    Si3142   Si       0.52264    0.04901    0.06807    1.000
    Si3143   Si       0.54197    0.02508    0.99990    1.000
    N3144    N        0.53918    0.14848    0.06979    1.000
    Si3145   Si       0.56892    0.23869    0.10107    1.000
    N3146    N        0.52985    0.24548    0.11798    1.000
    N3147    N        0.52426    0.25131    0.05266    1.000
    N3148    N        0.57402    0.20421    0.07506    1.000
    Si3149   Si       0.53091    0.11268    0.20843    1.000
    Si3150   Si       0.54099    0.02912    0.19921    1.000
    N3151    N        0.55308    0.11573    0.13395    1.000
    N3152    N        0.54521    0.07127    0.20830    1.000
    N3153    N        0.53289    0.01402    0.15782    1.000
    N3154    N        0.56621    0.13817    0.19808    1.000
    N3155    N        0.52980    0.19022    0.22339    1.000
    Si3156   Si       0.55723    0.18117    0.19187    1.000
    N3157    N        0.53526    0.18210    0.15468    1.000
    Si3158   Si       0.53067    0.11401    0.34493    1.000
    N3159    N        0.55324    0.11993    0.30845    1.000
    Si3160   Si       0.52860    0.01896    0.31291    1.000
    N3161    N        0.56180    0.01325    0.33814    1.000
    Si3162   Si       0.54667    0.09396    0.27310    1.000
    N3163    N        0.52543    0.06094    0.29709    1.000
    Si3164   Si       0.56158    0.04412    0.37177    1.000
    Si3165   Si       0.54903    0.18441    0.33716    1.000
    Si3166   Si       0.55422    0.19652    0.25987    1.000
    N3167    N        0.52985    0.19581    0.29941    1.000
    N3168    N        0.52665    0.15331    0.35966    1.000
    N3169    N        0.56387    0.23888    0.25816    1.000
    N3170    N        0.55118    0.21557    0.36569    1.000
    N3171    N        0.55383    0.09133    0.37504    1.000
    N3172    N        0.55322    0.02292    0.46981    1.000
    N3173    N        0.55404    0.09343    0.47935    1.000
    Si3174   Si       0.52106    0.11797    0.46666    1.000
    N3175    N        0.51829    0.03845    0.38232    1.000
    Si3176   Si       0.52735    0.22586    0.39986    1.000
    N3177    N        0.52488    0.16062    0.47138    1.000
    N3178    N        0.57163    0.15225    0.41069    1.000
    Si3179   Si       0.52716    0.15427    0.40474    1.000
    N3180    N        0.53980    0.23079    0.44047    1.000
    Si3181   Si       0.56935    0.23711    0.47079    1.000
    Si3182   Si       0.55280    0.05472    0.49931    1.000
    Si3183   Si       0.51773    0.04531    0.56213    1.000
    N3184    N        0.55780    0.00733    0.62452    1.000
    N3185    N        0.54006    0.14729    0.58663    1.000
    N3186    N        0.55645    0.20472    0.50356    1.000
    Si3187   Si       0.54033    0.23611    0.52833    1.000
    Si3188   Si       0.53066    0.17013    0.51483    1.000
    Si3189   Si       0.55899    0.25068    0.59511    1.000
    N3190    N        0.56736    0.14980    0.52780    1.000
    Si3191   Si       0.55708    0.17853    0.61293    1.000
    N3192    N        0.53969    0.21723    0.61249    1.000
    N3193    N        0.57208    0.23773    0.55727    1.000
    N3194    N        0.55878    0.04004    0.67709    1.000
    Si3195   Si       0.52549    0.01481    0.65651    1.000
    N3196    N        0.52558    0.05887    0.73170    1.000
    Si3197   Si       0.56386    0.06647    0.71084    1.000
    N3198    N        0.55555    0.08788    0.63177    1.000
    N3199    N        0.57451    0.10553    0.69549    1.000
    Si3200   Si       0.57408    0.04696    0.63697    1.000
    Si3201   Si       0.57445    0.12104    0.65588    1.000
    Si3202   Si       0.54940    0.24711    0.70183    1.000
    N3203    N        0.56556    0.16389    0.65353    1.000
    N3204    N        0.52099    0.21622    0.68549    1.000
    N3205    N        0.57657    0.17190    0.72053    1.000
    Si3206   Si       0.54473    0.04760    0.82238    1.000
    N3207    N        0.55306    0.11977    0.75902    1.000
    N3208    N        0.54868    0.01731    0.79446    1.000
    N3209    N        0.56801    0.13154    0.82467    1.000
    Si3210   Si       0.54544    0.14707    0.79263    1.000
    Si3211   Si       0.56369    0.16065    0.85772    1.000
    N3212    N        0.56467    0.18670    0.78759    1.000
    N3213    N        0.52214    0.17161    0.86230    1.000
    Si3214   Si       0.52315    0.24922    0.85420    1.000
    N3215    N        0.55708    0.23836    0.74396    1.000
    Si3216   Si       0.55128    0.19497    0.74790    1.000
    N3217    N        0.52079    0.01376    0.91379    1.000
    N3218    N        0.53066    0.05544    0.97155    1.000
    Si3219   Si       0.56187    0.10855    0.92222    1.000
    Si3220   Si       0.53362    0.05221    0.92866    1.000
    N3221    N        0.52606    0.12551    0.98932    1.000
    N3222    N        0.51962    0.09684    0.92562    1.000
    N3223    N        0.57044    0.12798    0.88533    1.000
    N3224    N        0.55516    0.22421    0.96213    1.000
    N3225    N        0.54074    0.23356    0.88978    1.000
    Si3226   Si       0.56215    0.24613    0.92447    1.000
    Si3227   Si       0.56710    0.13320    0.99273    1.000
    N3228    N        0.56254    0.29953    0.01235    1.000
    Si3229   Si       0.56564    0.26476    0.03884    1.000
    N3230    N        0.56845    0.35292    0.12014    1.000
    N3231    N        0.57932    0.27596    0.07923    1.000
    Si3232   Si       0.54557    0.39310    0.04388    1.000
    N3233    N        0.55952    0.42598    0.02033    1.000
    N3234    N        0.53682    0.49051    0.03406    1.000
    Si3235   Si       0.55146    0.44236    0.10068    1.000
    N3236    N        0.53724    0.40387    0.08588    1.000
    Si3237   Si       0.57203    0.46543    0.03338    1.000
    Si3238   Si       0.52476    0.50527    0.07442    1.000
    Si3239   Si       0.53366    0.28342    0.19310    1.000
    N3240    N        0.53769    0.31140    0.16002    1.000
    Si3241   Si       0.56940    0.37731    0.20577    1.000
    N3242    N        0.57672    0.26925    0.19635    1.000
    N3243    N        0.56644    0.35553    0.24410    1.000
    N3244    N        0.56815    0.42225    0.13619    1.000
    N3245    N        0.53423    0.38194    0.18145    1.000
    N3246    N        0.57508    0.49184    0.22487    1.000
    Si3247   Si       0.54032    0.38613    0.12617    1.000
    Si3248   Si       0.53120    0.50075    0.22200    1.000
    Si3249   Si       0.54978    0.35212    0.33002    1.000
    N3250    N        0.52515    0.26801    0.30995    1.000
    Si3251   Si       0.56313    0.26679    0.29197    1.000
    N3252    N        0.54395    0.31907    0.35624    1.000
    Si3253   Si       0.52785    0.33945    0.25315    1.000
    N3254    N        0.52348    0.33875    0.29611    1.000
    N3255    N        0.52599    0.38658    0.33605    1.000
    Si3256   Si       0.53139    0.46112    0.29512    1.000
    Si3257   Si       0.53181    0.41357    0.36860    1.000
    N3258    N        0.57292    0.44936    0.28670    1.000
    N3259    N        0.56999    0.43475    0.36506    1.000
    N3260    N        0.53622    0.36256    0.46061    1.000
    Si3261   Si       0.55189    0.29419    0.39000    1.000
    N3262    N        0.56865    0.31154    0.42582    1.000
    Si3263   Si       0.57516    0.34388    0.45396    1.000
    Si3264   Si       0.57301    0.44208    0.48992    1.000
    N3265    N        0.55579    0.47863    0.41040    1.000
    N3266    N        0.54630    0.38581    0.39771    1.000
    N3267    N        0.53748    0.43229    0.46373    1.000
    N3268    N        0.53504    0.49554    0.46590    1.000
    Si3269   Si       0.52303    0.46509    0.43804    1.000
    Si3270   Si       0.57466    0.49562    0.44660    1.000
    N3271    N        0.53901    0.28932    0.59870    1.000
    N3272    N        0.55000    0.38213    0.53599    1.000
    N3273    N        0.55054    0.26895    0.49933    1.000
    Si3274   Si       0.54495    0.41844    0.55714    1.000
    Si3275   Si       0.56384    0.48782    0.55161    1.000
    N3276    N        0.56025    0.44944    0.53101    1.000
    N3277    N        0.56962    0.42314    0.59390    1.000
    N3278    N        0.52874    0.50451    0.57299    1.000
    Si3279   Si       0.56140    0.31591    0.62577    1.000
    N3280    N        0.52298    0.28440    0.70250    1.000
    N3281    N        0.54030    0.34793    0.64444    1.000
    Si3282   Si       0.54216    0.31374    0.72806    1.000
    Si3283   Si       0.56407    0.37059    0.67425    1.000
    N3284    N        0.57159    0.34069    0.70857    1.000
    N3285    N        0.56116    0.43416    0.72927    1.000
    Si3286   Si       0.54785    0.43135    0.63025    1.000
    N3287    N        0.54119    0.47349    0.63572    1.000
    N3288    N        0.56104    0.41455    0.66972    1.000
    Si3289   Si       0.52906    0.42056    0.70410    1.000
    N3290    N        0.54288    0.33686    0.81288    1.000
    Si3291   Si       0.55242    0.30010    0.83763    1.000
    N3292    N        0.56593    0.29995    0.76325    1.000
    Si3293   Si       0.55611    0.37963    0.81433    1.000
    Si3294   Si       0.56848    0.25904    0.78104    1.000
    N3295    N        0.54702    0.25843    0.81903    1.000
    N3296    N        0.56175    0.39048    0.85681    1.000
    N3297    N        0.54800    0.41746    0.79406    1.000
    Si3298   Si       0.53543    0.47230    0.81514    1.000
    N3299    N        0.57110    0.47659    0.78932    1.000
    N3300    N        0.54010    0.50647    0.84237    1.000
    N3301    N        0.51994    0.44825    0.85053    1.000
    N3302    N        0.57378    0.31559    0.87396    1.000
    Si3303   Si       0.57001    0.35729    0.88480    1.000
    Si3304   Si       0.52838    0.30779    0.90337    1.000
    N3305    N        0.54898    0.28721    0.93497    1.000
    Si3306   Si       0.54987    0.30985    0.97357    1.000
    N3307    N        0.53293    0.35209    0.90757    1.000
    Si3308   Si       0.55642    0.50041    0.88369    1.000
    N3309    N        0.52697    0.49962    0.91568    1.000
    N3310    N        0.53369    0.42446    0.91288    1.000
    Si3311   Si       0.55052    0.42370    0.97790    1.000
    Si3312   Si       0.55176    0.42947    0.87401    1.000
    N3313    N        0.52593    0.45894    0.97118    1.000
    N3314    N        0.52429    0.38989    0.96997    1.000
    N3315    N        0.55431    0.53190    0.08844    1.000
    N3316    N        0.53950    0.59242    0.04291    1.000
    Si3317   Si       0.52953    0.57330    0.00283    1.000
    Si3318   Si       0.57737    0.61119    0.05372    1.000
    Si3319   Si       0.54779    0.67505    0.03862    1.000
    N3320    N        0.55227    0.71793    0.03877    1.000
    N3321    N        0.56411    0.66525    0.00048    1.000
    N3322    N        0.57451    0.65108    0.06587    1.000
    N3323    N        0.56286    0.61923    0.21891    1.000
    Si3324   Si       0.55100    0.53486    0.13195    1.000
    Si3325   Si       0.55212    0.57601    0.22520    1.000
    N3326    N        0.52527    0.54225    0.20992    1.000
    N3327    N        0.55924    0.57730    0.14673    1.000
    Si3328   Si       0.54636    0.65804    0.21861    1.000
    Si3329   Si       0.55233    0.70098    0.15779    1.000
    N3330    N        0.55153    0.67586    0.12256    1.000
    N3331    N        0.56906    0.68641    0.19599    1.000
    N3332    N        0.53867    0.75763    0.24510    1.000
    N3333    N        0.55179    0.57715    0.27014    1.000
    Si3334   Si       0.52914    0.52107    0.33961    1.000
    Si3335   Si       0.52759    0.59516    0.30217    1.000
    N3336    N        0.53998    0.63003    0.32892    1.000
    N3337    N        0.57029    0.51004    0.34293    1.000
    N3338    N        0.55543    0.72845    0.30557    1.000
    Si3339   Si       0.55953    0.72525    0.26230    1.000
    N3340    N        0.54298    0.68613    0.25320    1.000
    N3341    N        0.56190    0.69015    0.36505    1.000
    N3342    N        0.53663    0.75552    0.36415    1.000
    Si3343   Si       0.57822    0.59243    0.39675    1.000
    N3344    N        0.53656    0.58111    0.39726    1.000
    N3345    N        0.53461    0.56316    0.47201    1.000
    Si3346   Si       0.57575    0.56905    0.46274    1.000
    Si3347   Si       0.53097    0.52616    0.49463    1.000
    N3348    N        0.52999    0.71452    0.42465    1.000
    N3349    N        0.53514    0.68863    0.48817    1.000
    Si3350   Si       0.52836    0.71657    0.38164    1.000
    Si3351   Si       0.55860    0.70174    0.45468    1.000
    N3352    N        0.52682    0.64719    0.39480    1.000
    Si3353   Si       0.56952    0.66244    0.39571    1.000
    N3354    N        0.53869    0.60840    0.52256    1.000
    N3355    N        0.56618    0.51779    0.52055    1.000
    N3356    N        0.53944    0.55647    0.61450    1.000
    Si3357   Si       0.53108    0.51155    0.61533    1.000
    N3358    N        0.55268    0.66441    0.55690    1.000
    Si3359   Si       0.54029    0.69848    0.53093    1.000
    N3360    N        0.56985    0.72925    0.54368    1.000
    N3361    N        0.57917    0.52445    0.73751    1.000
    N3362    N        0.54456    0.60931    0.66087    1.000
    Si3363   Si       0.56751    0.57773    0.64019    1.000
    N3364    N        0.52876    0.57110    0.72637    1.000
    Si3365   Si       0.57624    0.51784    0.69637    1.000
    N3366    N        0.53255    0.51027    0.69277    1.000
    Si3367   Si       0.57405    0.64163    0.66228    1.000
    N3368    N        0.55494    0.71262    0.73394    1.000
    Si3369   Si       0.54495    0.70866    0.64828    1.000
    N3370    N        0.55203    0.67566    0.67619    1.000
    Si3371   Si       0.53273    0.67951    0.71475    1.000
    N3372    N        0.53917    0.64315    0.74035    1.000
    N3373    N        0.52876    0.73968    0.67443    1.000
    Si3374   Si       0.55025    0.75123    0.71429    1.000
    N3375    N        0.54043    0.56027    0.79295    1.000
    Si3376   Si       0.56438    0.56119    0.75426    1.000
    Si3377   Si       0.52515    0.54495    0.83094    1.000
    N3378    N        0.53521    0.57080    0.86416    1.000
    N3379    N        0.57399    0.62321    0.80981    1.000
    Si3380   Si       0.56996    0.64015    0.77128    1.000
    Si3381   Si       0.54891    0.65336    0.83184    1.000
    N3382    N        0.55759    0.68384    0.79534    1.000
    N3383    N        0.55665    0.75190    0.79581    1.000
    Si3384   Si       0.57466    0.72038    0.77242    1.000
    Si3385   Si       0.54999    0.59858    0.93906    1.000
    N3386    N        0.56222    0.58785    0.97822    1.000
    Si3387   Si       0.57615    0.57060    0.87748    1.000
    N3388    N        0.52700    0.63591    0.94076    1.000
    N3389    N        0.56516    0.69018    0.93375    1.000
    N3390    N        0.52341    0.74728    0.87345    1.000
    Si3391   Si       0.52153    0.65685    0.90028    1.000
    Si3392   Si       0.54247    0.67286    0.96493    1.000
    N3393    N        0.55440    0.66946    0.87175    1.000
    N3394    N        0.53884    0.83331    0.02145    1.000
    N3395    N        0.56673    0.83045    0.09024    1.000
    Si3396   Si       0.52414    0.81413    0.10241    1.000
    N3397    N        0.53604    0.96030    0.03965    1.000
    N3398    N        0.55250    0.90327    0.08741    1.000
    Si3399   Si       0.55601    0.95688    0.00165    1.000
    Si3400   Si       0.52368    0.92511    0.06471    1.000
    N3401    N        0.53719    0.78492    0.13405    1.000
    N3402    N        0.54171    0.84581    0.17330    1.000
    Si3403   Si       0.53951    0.80304    0.17466    1.000
    N3404    N        0.57376    0.79143    0.19855    1.000
    Si3405   Si       0.56095    0.79335    0.24093    1.000
    Si3406   Si       0.57414    0.87495    0.18282    1.000
    N3407    N        0.53216    0.82471    0.24539    1.000
    Si3408   Si       0.55733    0.00191    0.12336    1.000
    N3409    N        0.56853    0.96035    0.12698    1.000
    Si3410   Si       0.55025    0.92265    0.24434    1.000
    Si3411   Si       0.55528    0.91970    0.12703    1.000
    N3412    N        0.55315    0.89071    0.21649    1.000
    N3413    N        0.57561    0.95495    0.23473    1.000
    N3414    N        0.56662    0.82044    0.35506    1.000
    Si3415   Si       0.52365    0.82629    0.34785    1.000
    N3416    N        0.52423    0.79891    0.31158    1.000
    Si3417   Si       0.52683    0.75697    0.32209    1.000
    Si3418   Si       0.57541    0.99433    0.25267    1.000
    N3419    N        0.53505    0.99743    0.27486    1.000
    N3420    N        0.55015    0.90740    0.28634    1.000
    N3421    N        0.56207    0.85949    0.43570    1.000
    Si3422   Si       0.53856    0.82391    0.42627    1.000
    N3423    N        0.56304    0.78931    0.41952    1.000
    Si3424   Si       0.56667    0.78324    0.37786    1.000
    Si3425   Si       0.54206    0.81403    0.49815    1.000
    N3426    N        0.52336    0.91166    0.41514    1.000
    Si3427   Si       0.54440    0.89587    0.45128    1.000
    N3428    N        0.56628    0.92996    0.46851    1.000
    N3429    N        0.52626    0.97956    0.43508    1.000
    Si3430   Si       0.56967    0.99613    0.43665    1.000
    Si3431   Si       0.53413    0.95081    0.40381    1.000
    N3432    N        0.54175    0.84415    0.52856    1.000
    Si3433   Si       0.54817    0.79833    0.60048    1.000
    Si3434   Si       0.55410    0.76776    0.54968    1.000
    N3435    N        0.52992    0.77487    0.51529    1.000
    N3436    N        0.56722    0.87516    0.58208    1.000
    N3437    N        0.52693    0.76434    0.58321    1.000
    Si3438   Si       0.57566    0.84229    0.55528    1.000
    Si3439   Si       0.54073    0.87033    0.61595    1.000
    N3440    N        0.57949    0.79979    0.56924    1.000
    N3441    N        0.54292    0.00690    0.56182    1.000
    N3442    N        0.56493    0.94970    0.60014    1.000
    N3443    N        0.54841    0.91899    0.53482    1.000
    Si3444   Si       0.53285    0.98011    0.59819    1.000
    Si3445   Si       0.55277    0.95138    0.50581    1.000
    Si3446   Si       0.57511    0.91870    0.56995    1.000
    Si3447   Si       0.52150    0.78108    0.65987    1.000
    N3448    N        0.56493    0.87182    0.65305    1.000
    N3449    N        0.55903    0.78763    0.63895    1.000
    N3450    N        0.56565    0.78520    0.73959    1.000
    Si3451   Si       0.56344    0.83912    0.68324    1.000
    N3452    N        0.55962    0.86492    0.72116    1.000
    N3453    N        0.52189    0.81983    0.68137    1.000
    Si3454   Si       0.52261    0.85967    0.74134    1.000
    N3455    N        0.55608    0.98520    0.73865    1.000
    N3456    N        0.57782    0.94431    0.67696    1.000
    Si3457   Si       0.55537    0.82502    0.83923    1.000
    Si3458   Si       0.54831    0.79492    0.77774    1.000
    N3459    N        0.57112    0.82726    0.79753    1.000
    N3460    N        0.56744    0.79032    0.86291    1.000
    N3461    N        0.52408    0.85522    0.84269    1.000
    N3462    N        0.51949    0.88088    0.77960    1.000
    Si3463   Si       0.52947    0.75759    0.83010    1.000
    N3464    N        0.54332    0.98070    0.85425    1.000
    Si3465   Si       0.54656    0.97736    0.80986    1.000
    Si3466   Si       0.56054    0.84030    0.93984    1.000
    Si3467   Si       0.55959    0.76057    0.89111    1.000
    N3468    N        0.55267    0.76213    0.93586    1.000
    N3469    N        0.56173    0.88197    0.92974    1.000
    N3470    N        0.52093    0.82357    0.94530    1.000
    Si3471   Si       0.55341    0.91498    0.90406    1.000
    N3472    N        0.55760    0.95561    0.91754    1.000
    Si3473   Si       0.52621    0.97853    0.93863    1.000
    N3474    N        0.54336    0.98833    0.97665    1.000
    N3475    N        0.55701    0.91750    0.98724    1.000
    N3476    N        0.61729    0.06060    0.06684    1.000
    Si3477   Si       0.62627    0.02731    0.09142    1.000
    N3478    N        0.59161    0.10329    0.01216    1.000
    Si3479   Si       0.58532    0.07114    0.04249    1.000
    Si3480   Si       0.63117    0.12921    0.10910    1.000
    N3481    N        0.59976    0.13430    0.08082    1.000
    N3482    N        0.59474    0.23969    0.02087    1.000
    Si3483   Si       0.57771    0.16620    0.05501    1.000
    Si3484   Si       0.63591    0.24163    0.03608    1.000
    N3485    N        0.57487    0.17181    0.01110    1.000
    N3486    N        0.60103    0.01496    0.12543    1.000
    N3487    N        0.60677    0.08187    0.17897    1.000
    Si3488   Si       0.58941    0.06604    0.21775    1.000
    Si3489   Si       0.58534    0.11549    0.16339    1.000
    N3490    N        0.62848    0.05189    0.23751    1.000
    Si3491   Si       0.62170    0.01099    0.20099    1.000
    N3492    N        0.57992    0.01885    0.21617    1.000
    N3493    N        0.63308    0.14218    0.21045    1.000
    N3494    N        0.61478    0.14360    0.14608    1.000
    Si3495   Si       0.62769    0.17150    0.17764    1.000
    N3496    N        0.59704    0.19977    0.19083    1.000
    Si3497   Si       0.59537    0.13409    0.23096    1.000
    Si3498   Si       0.60083    0.23972    0.17426    1.000
    N3499    N        0.59778    0.23257    0.13258    1.000
    N3500    N        0.60989    0.05588    0.36272    1.000
    N3501    N        0.62307    0.11738    0.30403    1.000
    N3502    N        0.58797    0.09613    0.25155    1.000
    Si3503   Si       0.62960    0.08592    0.27126    1.000
    Si3504   Si       0.58836    0.14271    0.29961    1.000
    N3505    N        0.59078    0.17424    0.32753    1.000
    Si3506   Si       0.59015    0.23582    0.35866    1.000
    N3507    N        0.62917    0.21700    0.36295    1.000
    N3508    N        0.59240    0.25027    0.31715    1.000
    N3509    N        0.58114    0.16248    0.26078    1.000
    Si3510   Si       0.62985    0.24893    0.29258    1.000
    Si3511   Si       0.63361    0.18877    0.33164    1.000
    N3512    N        0.62756    0.25643    0.24897    1.000
    N3513    N        0.62959    0.12079    0.37898    1.000
    Si3514   Si       0.61435    0.05543    0.40745    1.000
    N3515    N        0.59922    0.09124    0.42867    1.000
    Si3516   Si       0.58879    0.11511    0.39318    1.000
    Si3517   Si       0.59454    0.10528    0.46967    1.000
    N3518    N        0.57973    0.02808    0.40877    1.000
    N3519    N        0.60018    0.20705    0.45882    1.000
    Si3520   Si       0.60209    0.17122    0.43479    1.000
    Si3521   Si       0.63265    0.23772    0.46229    1.000
    N3522    N        0.60268    0.14703    0.47052    1.000
    N3523    N        0.60688    0.10740    0.56964    1.000
    Si3524   Si       0.61622    0.07996    0.53426    1.000
    Si3525   Si       0.62317    0.09355    0.60672    1.000
    N3526    N        0.58256    0.05051    0.53146    1.000
    Si3527   Si       0.63058    0.01388    0.61032    1.000
    N3528    N        0.62663    0.09286    0.49575    1.000
    N3529    N        0.61332    0.05379    0.61999    1.000
    Si3530   Si       0.58028    0.14069    0.56757    1.000
    N3531    N        0.59775    0.17487    0.59372    1.000
    N3532    N        0.62508    0.18541    0.52854    1.000
    Si3533   Si       0.59148    0.17750    0.50112    1.000
    Si3534   Si       0.63229    0.19198    0.57016    1.000
    Si3535   Si       0.61208    0.25677    0.56667    1.000
    N3536    N        0.59983    0.26052    0.60845    1.000
    N3537    N        0.61383    0.12325    0.63605    1.000
    Si3538   Si       0.58280    0.13059    0.72941    1.000
    N3539    N        0.59088    0.05567    0.74404    1.000
    Si3540   Si       0.62582    0.16496    0.62920    1.000
    N3541    N        0.58284    0.23314    0.67717    1.000
    Si3542   Si       0.58743    0.18942    0.68393    1.000
    N3543    N        0.62841    0.18438    0.66725    1.000
    Si3544   Si       0.58612    0.10394    0.85046    1.000
    Si3545   Si       0.62009    0.04437    0.82079    1.000
    Si3546   Si       0.62451    0.08068    0.75578    1.000
    N3547    N        0.62872    0.10482    0.85638    1.000
    N3548    N        0.61568    0.01453    0.78736    1.000
    N3549    N        0.58296    0.06137    0.83681    1.000
    Si3550   Si       0.57958    0.01561    0.75965    1.000
    N3551    N        0.62144    0.12235    0.74674    1.000
    N3552    N        0.61059    0.23976    0.78993    1.000
    N3553    N        0.59572    0.19130    0.84908    1.000
    Si3554   Si       0.60090    0.19917    0.80585    1.000
    N3555    N        0.63222    0.18188    0.78034    1.000
    N3556    N        0.63047    0.06488    0.96353    1.000
    Si3557   Si       0.61367    0.04364    0.92855    1.000
    Si3558   Si       0.61501    0.10251    0.97498    1.000
    N3559    N        0.58502    0.12798    0.95250    1.000
    N3560    N        0.57678    0.06582    0.92131    1.000
    N3561    N        0.62120    0.19676    0.97012    1.000
    N3562    N        0.62619    0.16957    0.90608    1.000
    Si3563   Si       0.62051    0.20623    0.88437    1.000
    Si3564   Si       0.58407    0.20798    0.99092    1.000
    N3565    N        0.60336    0.23954    0.91069    1.000
    Si3566   Si       0.62014    0.15873    0.94701    1.000
    Si3567   Si       0.59578    0.36160    0.08705    1.000
    Si3568   Si       0.61791    0.28843    0.09372    1.000
    Si3569   Si       0.58969    0.33448    0.01752    1.000
    N3570    N        0.62612    0.33026    0.08053    1.000
    N3571    N        0.63117    0.32052    0.01738    1.000
    N3572    N        0.57685    0.36138    0.04701    1.000
    N3573    N        0.59745    0.48276    0.00246    1.000
    N3574    N        0.61648    0.39990    0.09464    1.000
    Si3575   Si       0.61970    0.47295    0.08729    1.000
    N3576    N        0.58095    0.46081    0.07517    1.000
    Si3577   Si       0.58809    0.27054    0.23778    1.000
    N3578    N        0.59487    0.34793    0.18579    1.000
    N3579    N        0.61382    0.29949    0.13691    1.000
    Si3580   Si       0.57859    0.32169    0.15186    1.000
    N3581    N        0.62867    0.45810    0.12833    1.000
    Si3582   Si       0.58472    0.45505    0.24430    1.000
    Si3583   Si       0.62867    0.41727    0.20469    1.000
    Si3584   Si       0.60964    0.41698    0.13239    1.000
    N3585    N        0.63148    0.39693    0.16370    1.000
    N3586    N        0.58612    0.41971    0.21666    1.000
    Si3587   Si       0.59829    0.34045    0.27206    1.000
    Si3588   Si       0.62107    0.37125    0.33308    1.000
    N3589    N        0.58705    0.35766    0.31066    1.000
    N3590    N        0.58315    0.29940    0.26941    1.000
    N3591    N        0.62027    0.47364    0.32838    1.000
    Si3592   Si       0.61495    0.44204    0.29953    1.000
    N3593    N        0.62667    0.45443    0.25650    1.000
    N3594    N        0.63595    0.40582    0.31182    1.000
    Si3595   Si       0.58049    0.47794    0.37262    1.000
    N3596    N        0.63495    0.31012    0.40707    1.000
    N3597    N        0.60779    0.37413    0.37256    1.000
    N3598    N        0.58703    0.26762    0.38552    1.000
    Si3599   Si       0.60478    0.28378    0.42192    1.000
    N3600    N        0.61140    0.36519    0.43817    1.000
    N3601    N        0.60343    0.26930    0.46657    1.000
    Si3602   Si       0.63283    0.35234    0.40269    1.000
    N3603    N        0.59841    0.40778    0.49036    1.000
    N3604    N        0.61005    0.42942    0.41891    1.000
    N3605    N        0.61908    0.49007    0.39235    1.000
    Si3606   Si       0.62049    0.40529    0.45307    1.000
    N3607    N        0.60160    0.47172    0.47566    1.000
    Si3608   Si       0.58499    0.40495    0.39495    1.000
    N3609    N        0.62356    0.36323    0.54274    1.000
    N3610    N        0.61092    0.29187    0.54079    1.000
    N3611    N        0.59211    0.33328    0.59882    1.000
    Si3612   Si       0.58816    0.37128    0.51487    1.000
    Si3613   Si       0.61890    0.32712    0.56575    1.000
    Si3614   Si       0.58929    0.29186    0.50406    1.000
    N3615    N        0.58659    0.33338    0.49406    1.000
    N3616    N        0.59825    0.48110    0.57763    1.000
    Si3617   Si       0.61067    0.44339    0.59360    1.000
    Si3618   Si       0.62791    0.34886    0.62222    1.000
    Si3619   Si       0.60580    0.32654    0.68726    1.000
    N3620    N        0.60784    0.36334    0.66156    1.000
    N3621    N        0.59028    0.30035    0.65779    1.000
    Si3622   Si       0.60796    0.25973    0.65088    1.000
    N3623    N        0.63962    0.30746    0.71127    1.000
    N3624    N        0.61867    0.44430    0.63724    1.000
    Si3625   Si       0.63177    0.47943    0.65600    1.000
    Si3626   Si       0.58738    0.44208    0.69403    1.000
    N3627    N        0.59952    0.48222    0.68552    1.000
    N3628    N        0.62100    0.41784    0.69839    1.000
    N3629    N        0.59839    0.29715    0.82253    1.000
    N3630    N        0.59187    0.36992    0.79053    1.000
    Si3631   Si       0.58561    0.32650    0.79088    1.000
    Si3632   Si       0.61477    0.31154    0.86005    1.000
    N3633    N        0.63029    0.32230    0.77833    1.000
    N3634    N        0.63416    0.34746    0.84756    1.000
    Si3635   Si       0.63342    0.28138    0.79493    1.000
    Si3636   Si       0.63397    0.38324    0.78146    1.000
    N3637    N        0.62226    0.42570    0.77783    1.000
    Si3638   Si       0.57973    0.43706    0.77021    1.000
    N3639    N        0.62655    0.30035    0.94784    1.000
    N3640    N        0.60037    0.36355    0.91553    1.000
    Si3641   Si       0.61293    0.34121    0.95143    1.000
    Si3642   Si       0.63492    0.26947    0.91830    1.000
    N3643    N        0.63588    0.37473    0.96520    1.000
    N3644    N        0.57702    0.34423    0.97460    1.000
    N3645    N        0.62261    0.48590    0.93393    1.000
    N3646    N        0.57980    0.46298    0.88078    1.000
    Si3647   Si       0.61443    0.46168    0.96831    1.000
    Si3648   Si       0.61295    0.39828    0.93611    1.000
    Si3649   Si       0.62116    0.46068    0.89552    1.000
    N3650    N        0.58903    0.42892    0.95651    1.000
    N3651    N        0.60252    0.58954    0.08127    1.000
    N3652    N        0.60767    0.61538    0.02276    1.000
    N3653    N        0.59989    0.54964    0.03146    1.000
    Si3654   Si       0.59153    0.54695    0.07308    1.000
    N3655    N        0.62308    0.51586    0.08772    1.000
    Si3656   Si       0.61658    0.52205    0.00260    1.000
    Si3657   Si       0.59297    0.67201    0.10313    1.000
    Si3658   Si       0.59116    0.73087    0.05659    1.000
    N3659    N        0.61527    0.70286    0.08022    1.000
    N3660    N        0.62018    0.74165    0.02562    1.000
    Si3661   Si       0.60583    0.65014    0.99596    1.000
    Si3662   Si       0.63822    0.71669    0.99523    1.000
    N3663    N        0.62002    0.61266    0.17941    1.000
    Si3664   Si       0.59909    0.57548    0.16860    1.000
    Si3665   Si       0.60667    0.61882    0.22017    1.000
    N3666    N        0.59100    0.55957    0.20942    1.000
    Si3667   Si       0.60606    0.52422    0.23095    1.000
    Si3668   Si       0.62372    0.51775    0.13460    1.000
    N3669    N        0.62766    0.56213    0.13782    1.000
    N3670    N        0.58359    0.51238    0.14999    1.000
    N3671    N        0.61975    0.67188    0.13834    1.000
    N3672    N        0.58165    0.73063    0.14180    1.000
    N3673    N        0.62564    0.65950    0.22589    1.000
    Si3674   Si       0.60597    0.69776    0.21735    1.000
    N3675    N        0.62768    0.72306    0.18982    1.000
    Si3676   Si       0.62116    0.71504    0.14771    1.000
    N3677    N        0.59729    0.58963    0.32217    1.000
    Si3678   Si       0.59454    0.57436    0.28278    1.000
    Si3679   Si       0.62636    0.57494    0.34917    1.000
    N3680    N        0.62048    0.59920    0.25838    1.000
    N3681    N        0.60089    0.53077    0.27596    1.000
    Si3682   Si       0.60580    0.51381    0.31606    1.000
    Si3683   Si       0.58277    0.62737    0.33526    1.000
    N3684    N        0.60271    0.65993    0.31221    1.000
    N3685    N        0.61726    0.71324    0.33733    1.000
    N3686    N        0.60319    0.72154    0.25326    1.000
    Si3687   Si       0.58056    0.69830    0.32580    1.000
    Si3688   Si       0.63510    0.75053    0.34666    1.000
    N3689    N        0.58038    0.60509    0.43937    1.000
    N3690    N        0.60244    0.56089    0.38222    1.000
    N3691    N        0.59294    0.53434    0.44377    1.000
    Si3692   Si       0.62006    0.53140    0.40811    1.000
    N3693    N        0.59574    0.62996    0.37804    1.000
    N3694    N        0.58357    0.73635    0.46394    1.000
    N3695    N        0.58495    0.67446    0.43369    1.000
    Si3696   Si       0.60656    0.63962    0.45192    1.000
    Si3697   Si       0.60272    0.53932    0.52304    1.000
    N3698    N        0.59651    0.61267    0.56201    1.000
    N3699    N        0.60939    0.54199    0.56510    1.000
    Si3700   Si       0.61765    0.58076    0.58109    1.000
    Si3701   Si       0.58317    0.61212    0.52125    1.000
    N3702    N        0.59412    0.57511    0.50236    1.000
    Si3703   Si       0.62535    0.51197    0.59033    1.000
    N3704    N        0.63321    0.75612    0.57998    1.000
    N3705    N        0.61410    0.68737    0.58284    1.000
    Si3706   Si       0.61083    0.72589    0.55959    1.000
    Si3707   Si       0.58673    0.65257    0.58119    1.000
    N3708    N        0.60514    0.63951    0.49491    1.000
    N3709    N        0.60834    0.58202    0.62327    1.000
    Si3710   Si       0.61080    0.62156    0.73020    1.000
    Si3711   Si       0.62610    0.55435    0.65446    1.000
    N3712    N        0.58533    0.55097    0.67224    1.000
    N3713    N        0.62888    0.51692    0.63215    1.000
    Si3714   Si       0.61167    0.68995    0.62657    1.000
    N3715    N        0.58536    0.65347    0.62372    1.000
    N3716    N        0.59421    0.75718    0.69376    1.000
    N3717    N        0.60782    0.63655    0.68916    1.000
    N3718    N        0.58549    0.72333    0.63635    1.000
    N3719    N        0.60732    0.54914    0.78691    1.000
    Si3720   Si       0.60356    0.58834    0.80636    1.000
    N3721    N        0.60737    0.57301    0.84898    1.000
    N3722    N        0.58304    0.59845    0.75235    1.000
    Si3723   Si       0.59668    0.50731    0.77406    1.000
    N3724    N        0.61730    0.72488    0.76196    1.000
    N3725    N        0.60786    0.65680    0.75492    1.000
    N3726    N        0.58057    0.53331    0.89894    1.000
    N3727    N        0.60969    0.54461    0.96516    1.000
    Si3728   Si       0.61543    0.52816    0.92647    1.000
    Si3729   Si       0.61627    0.62537    0.91834    1.000
    Si3730   Si       0.60620    0.58601    0.98277    1.000
    N3731    N        0.61130    0.62709    0.96058    1.000
    N3732    N        0.58038    0.60113    0.90774    1.000
    N3733    N        0.61604    0.72461    0.96092    1.000
    Si3734   Si       0.58031    0.73011    0.93952    1.000
    N3735    N        0.61792    0.66114    0.89372    1.000
    Si3736   Si       0.58597    0.68937    0.89479    1.000
    N3737    N        0.59293    0.73342    0.89628    1.000
    N3738    N        0.59919    0.80882    0.03047    1.000
    Si3739   Si       0.59823    0.80559    0.07288    1.000
    N3740    N        0.59326    0.87274    0.04337    1.000
    N3741    N        0.62432    0.87557    0.10037    1.000
    Si3742   Si       0.58216    0.87251    0.08428    1.000
    N3743    N        0.58509    0.76577    0.08332    1.000
    Si3744   Si       0.62792    0.78333    0.01303    1.000
    Si3745   Si       0.57995    0.84309    0.01596    1.000
    Si3746   Si       0.63348    0.88925    0.03324    1.000
    N3747    N        0.59834    0.96931    0.00904    1.000
    N3748    N        0.62105    0.99108    0.06790    1.000
    Si3749   Si       0.63222    0.94467    0.00379    1.000
    Si3750   Si       0.61104    0.00586    0.02819    1.000
    N3751    N        0.61263    0.78914    0.14578    1.000
    Si3752   Si       0.61177    0.80816    0.18530    1.000
    N3753    N        0.61009    0.85056    0.18737    1.000
    Si3754   Si       0.57835    0.77085    0.12615    1.000
    Si3755   Si       0.61484    0.95133    0.21505    1.000
    Si3756   Si       0.61176    0.97263    0.13576    1.000
    N3757    N        0.62984    0.91408    0.22004    1.000
    Si3758   Si       0.62740    0.90558    0.13234    1.000
    N3759    N        0.61477    0.97274    0.17717    1.000
    N3760    N        0.58758    0.90182    0.15106    1.000
    Si3761   Si       0.59557    0.85186    0.35333    1.000
    N3762    N        0.59360    0.80145    0.26664    1.000
    N3763    N        0.61534    0.84220    0.31628    1.000
    Si3764   Si       0.62691    0.80676    0.29274    1.000
    N3765    N        0.61009    0.77298    0.37391    1.000
    Si3766   Si       0.59712    0.99016    0.32840    1.000
    Si3767   Si       0.58900    0.90871    0.31167    1.000
    N3768    N        0.59332    0.94759    0.33452    1.000
    N3769    N        0.62566    0.90146    0.28806    1.000
    N3770    N        0.60265    0.00111    0.28510    1.000
    Si3771   Si       0.60426    0.92336    0.37452    1.000
    N3772    N        0.57542    0.89118    0.35070    1.000
    Si3773   Si       0.60483    0.86215    0.42810    1.000
    N3774    N        0.62090    0.84353    0.38955    1.000
    Si3775   Si       0.59018    0.77740    0.45083    1.000
    N3776    N        0.63090    0.85612    0.46261    1.000
    N3777    N        0.58236    0.80608    0.48309    1.000
    N3778    N        0.63471    0.77955    0.44260    1.000
    N3779    N        0.60185    0.90354    0.41472    1.000
    Si3780   Si       0.60056    0.93902    0.43962    1.000
    Si3781   Si       0.62367    0.96102    0.49483    1.000
    N3782    N        0.61001    0.98398    0.45609    1.000
    N3783    N        0.57684    0.95935    0.40719    1.000
    Si3784   Si       0.61878    0.79555    0.59070    1.000
    N3785    N        0.60929    0.85388    0.52981    1.000
    Si3786   Si       0.63493    0.88674    0.54607    1.000
    Si3787   Si       0.61834    0.82923    0.49563    1.000
    N3788    N        0.58817    0.97323    0.51820    1.000
    N3789    N        0.61475    0.92424    0.55381    1.000
    N3790    N        0.61537    0.99718    0.57280    1.000
    Si3791   Si       0.58381    0.00697    0.54566    1.000
    Si3792   Si       0.63453    0.96172    0.55898    1.000
    Si3793   Si       0.59237    0.76364    0.65071    1.000
    N3794    N        0.62411    0.79103    0.63219    1.000
    N3795    N        0.60429    0.82322    0.69161    1.000
    Si3796   Si       0.60322    0.78974    0.71949    1.000
    N3797    N        0.62034    0.89552    0.69501    1.000
    Si3798   Si       0.59228    0.90467    0.66208    1.000
    N3799    N        0.61706    0.92290    0.63188    1.000
    Si3800   Si       0.59121    0.96061    0.63587    1.000
    Si3801   Si       0.58627    0.95804    0.71741    1.000
    Si3802   Si       0.59809    0.88349    0.73195    1.000
    N3803    N        0.62381    0.98902    0.64589    1.000
    N3804    N        0.61754    0.98747    0.71779    1.000
    Si3805   Si       0.60659    0.84983    0.80129    1.000
    N3806    N        0.59452    0.84582    0.85419    1.000
    N3807    N        0.61896    0.85647    0.75610    1.000
    N3808    N        0.63744    0.78902    0.74639    1.000
    Si3809   Si       0.61352    0.88518    0.85617    1.000
    N3810    N        0.61130    0.89180    0.81236    1.000
    Si3811   Si       0.60727    0.92962    0.79027    1.000
    N3812    N        0.58174    0.95318    0.81316    1.000
    N3813    N        0.59340    0.92546    0.74858    1.000
    Si3814   Si       0.58021    0.95505    0.85636    1.000
    Si3815   Si       0.60394    0.81153    0.87819    1.000
    Si3816   Si       0.62018    0.83047    0.95225    1.000
    N3817    N        0.59326    0.82262    0.91769    1.000
    N3818    N        0.58766    0.84971    0.97463    1.000
    N3819    N        0.63407    0.79423    0.96912    1.000
    N3820    N        0.58355    0.91291    0.87083    1.000
    Si3821   Si       0.58835    0.89586    0.96413    1.000
    N3822    N        0.61175    0.97650    0.87715    1.000
    N3823    N        0.62790    0.90178    0.99010    1.000
    Si3824   Si       0.59953    0.96554    0.92071    1.000
    N3825    N        0.60926    0.92609    0.93711    1.000
    N3826    N        0.61626    0.00179    0.94055    1.000
    N3827    N        0.67043    0.03110    0.09609    1.000
    Si3828   Si       0.68004    0.07385    0.09899    1.000
    N3829    N        0.64822    0.01712    0.01142    1.000
    N3830    N        0.68502    0.08410    0.99838    1.000
    N3831    N        0.64891    0.09090    0.12357    1.000
    N3832    N        0.69622    0.09552    0.06594    1.000
    N3833    N        0.66415    0.15408    0.09300    1.000
    N3834    N        0.65930    0.20602    0.04029    1.000
    N3835    N        0.69374    0.14920    0.02303    1.000
    Si3836   Si       0.69369    0.19382    0.01824    1.000
    Si3837   Si       0.68277    0.25890    0.09739    1.000
    Si3838   Si       0.69543    0.13967    0.06522    1.000
    N3839    N        0.69447    0.21800    0.10872    1.000
    N3840    N        0.65280    0.02638    0.17615    1.000
    Si3841   Si       0.66799    0.11972    0.21393    1.000
    N3842    N        0.67737    0.09169    0.18274    1.000
    Si3843   Si       0.64406    0.06973    0.16321    1.000
    Si3844   Si       0.68370    0.17659    0.12512    1.000
    N3845    N        0.64034    0.25426    0.18178    1.000
    N3846    N        0.67006    0.20601    0.22981    1.000
    N3847    N        0.66715    0.18513    0.16431    1.000
    Si3848   Si       0.65764    0.24639    0.22189    1.000
    N3849    N        0.68212    0.10290    0.32440    1.000
    N3850    N        0.68263    0.04956    0.35830    1.000
    Si3851   Si       0.64809    0.12238    0.33887    1.000
    N3852    N        0.66628    0.10666    0.25464    1.000
    Si3853   Si       0.64356    0.04353    0.33868    1.000
    Si3854   Si       0.69171    0.12095    0.28700    1.000
    Si3855   Si       0.63948    0.01921    0.26798    1.000
    N3856    N        0.64362    0.05341    0.29787    1.000
    N3857    N        0.68296    0.00548    0.27151    1.000
    N3858    N        0.66693    0.16353    0.34588    1.000
    Si3859   Si       0.68224    0.20000    0.27150    1.000
    N3860    N        0.64636    0.20797    0.29545    1.000
    Si3861   Si       0.68634    0.03713    0.39893    1.000
    Si3862   Si       0.66102    0.11225    0.47967    1.000
    N3863    N        0.64933    0.03725    0.42258    1.000
    N3864    N        0.67126    0.11052    0.43654    1.000
    N3865    N        0.69240    0.08358    0.48953    1.000
    N3866    N        0.65079    0.02335    0.49615    1.000
    N3867    N        0.67274    0.15042    0.49301    1.000
    N3868    N        0.64214    0.17448    0.41770    1.000
    Si3869   Si       0.66445    0.13844    0.40408    1.000
    N3870    N        0.66793    0.22183    0.48001    1.000
    Si3871   Si       0.65083    0.21110    0.39714    1.000
    N3872    N        0.63964    0.24734    0.41990    1.000
    N3873    N        0.67499    0.02357    0.60702    1.000
    Si3874   Si       0.67937    0.06011    0.58339    1.000
    N3875    N        0.65329    0.06332    0.54921    1.000
    Si3876   Si       0.67830    0.05014    0.51320    1.000
    N3877    N        0.66976    0.09522    0.60909    1.000
    Si3878   Si       0.68577    0.13633    0.59674    1.000
    N3879    N        0.64868    0.23326    0.56952    1.000
    N3880    N        0.65696    0.16723    0.59782    1.000
    Si3881   Si       0.66546    0.18904    0.50782    1.000
    Si3882   Si       0.69104    0.23522    0.55623    1.000
    N3883    N        0.69401    0.19553    0.54034    1.000
    N3884    N        0.65878    0.06453    0.73618    1.000
    N3885    N        0.67248    0.02404    0.68415    1.000
    Si3886   Si       0.68903    0.05969    0.70570    1.000
    N3887    N        0.68996    0.10059    0.68756    1.000
    Si3888   Si       0.69270    0.25142    0.66330    1.000
    N3889    N        0.67758    0.15898    0.72212    1.000
    N3890    N        0.69553    0.20767    0.66714    1.000
    Si3891   Si       0.66394    0.19238    0.69397    1.000
    N3892    N        0.65034    0.22079    0.72549    1.000
    Si3893   Si       0.65990    0.10978    0.82042    1.000
    N3894    N        0.68034    0.12741    0.78590    1.000
    N3895    N        0.65244    0.02053    0.83776    1.000
    N3896    N        0.68945    0.08010    0.84338    1.000
    N3897    N        0.68580    0.00862    0.78265    1.000
    Si3898   Si       0.69398    0.04264    0.81701    1.000
    N3899    N        0.63549    0.07890    0.79893    1.000
    Si3900   Si       0.68012    0.19193    0.83296    1.000
    N3901    N        0.66394    0.15264    0.84164    1.000
    N3902    N        0.68171    0.21823    0.79835    1.000
    Si3903   Si       0.65391    0.14789    0.75797    1.000
    Si3904   Si       0.64739    0.22233    0.76976    1.000
    N3905    N        0.66056    0.21336    0.86692    1.000
    Si3906   Si       0.69138    0.26035    0.79398    1.000
    Si3907   Si       0.65684    0.07872    0.87740    1.000
    Si3908   Si       0.66412    0.04874    0.98533    1.000
    N3909    N        0.68694    0.02142    0.95702    1.000
    N3910    N        0.66748    0.11109    0.90439    1.000
    Si3911   Si       0.68434    0.12864    0.98592    1.000
    N3912    N        0.64071    0.04254    0.89312    1.000
    N3913    N        0.64451    0.13448    0.97335    1.000
    Si3914   Si       0.64343    0.14085    0.87872    1.000
    Si3915   Si       0.65546    0.22421    0.96799    1.000
    Si3916   Si       0.68858    0.22743    0.89904    1.000
    N3917    N        0.69149    0.20320    0.97562    1.000
    N3918    N        0.66565    0.24187    0.93069    1.000
    Si3919   Si       0.65254    0.34196    0.04829    1.000
    N3920    N        0.64602    0.26224    0.07578    1.000
    N3921    N        0.69197    0.33941    0.06447    1.000
    N3922    N        0.65389    0.25642    0.99857    1.000
    N3923    N        0.64872    0.38333    0.03442    1.000
    Si3924   Si       0.66410    0.46677    0.02081    1.000
    Si3925   Si       0.64939    0.41102    0.06883    1.000
    N3926    N        0.64595    0.45256    0.05873    1.000
    N3927    N        0.68807    0.40306    0.08550    1.000
    N3928    N        0.69444    0.50543    0.07783    1.000
    N3929    N        0.65395    0.50887    0.02167    1.000
    Si3930   Si       0.65196    0.28851    0.15854    1.000
    N3931    N        0.66210    0.32520    0.17983    1.000
    N3932    N        0.68696    0.28187    0.13369    1.000
    N3933    N        0.69031    0.27444    0.21753    1.000
    N3934    N        0.64599    0.38176    0.22107    1.000
    Si3935   Si       0.63618    0.35859    0.18355    1.000
    N3936    N        0.65696    0.44971    0.19922    1.000
    Si3937   Si       0.65711    0.47319    0.23613    1.000
    N3938    N        0.66028    0.50584    0.15574    1.000
    Si3939   Si       0.66091    0.46321    0.15552    1.000
    N3940    N        0.65186    0.28035    0.30687    1.000
    Si3941   Si       0.66496    0.32021    0.30374    1.000
    N3942    N        0.65607    0.34477    0.33824    1.000
    N3943    N        0.64258    0.34286    0.27344    1.000
    Si3944   Si       0.67223    0.36568    0.25138    1.000
    Si3945   Si       0.69490    0.35655    0.36241    1.000
    N3946    N        0.69168    0.50222    0.35770    1.000
    N3947    N        0.67897    0.45409    0.31739    1.000
    Si3948   Si       0.65802    0.47267    0.35245    1.000
    Si3949   Si       0.67792    0.41178    0.31168    1.000
    N3950    N        0.69205    0.39990    0.27180    1.000
    N3951    N        0.69494    0.47302    0.25624    1.000
    N3952    N        0.67517    0.36491    0.39983    1.000
    Si3953   Si       0.66666    0.28108    0.41455    1.000
    N3954    N        0.68628    0.28667    0.45240    1.000
    N3955    N        0.69246    0.27642    0.38299    1.000
    Si3956   Si       0.69219    0.38746    0.43167    1.000
    N3957    N        0.67036    0.44681    0.38778    1.000
    Si3958   Si       0.68641    0.43573    0.48473    1.000
    Si3959   Si       0.64082    0.48770    0.48488    1.000
    N3960    N        0.66397    0.41597    0.45143    1.000
    Si3961   Si       0.64091    0.45892    0.41933    1.000
    N3962    N        0.66114    0.48959    0.44605    1.000
    N3963    N        0.65339    0.32654    0.59393    1.000
    Si3964   Si       0.66548    0.37320    0.53612    1.000
    N3965    N        0.68496    0.33794    0.52006    1.000
    Si3966   Si       0.69483    0.33953    0.59157    1.000
    N3967    N        0.69116    0.37828    0.57184    1.000
    N3968    N        0.66856    0.46586    0.51005    1.000
    Si3969   Si       0.67490    0.41222    0.59688    1.000
    Si3970   Si       0.67497    0.46233    0.55317    1.000
    N3971    N        0.64705    0.43619    0.57182    1.000
    N3972    N        0.68807    0.39977    0.50939    1.000
    N3973    N        0.66557    0.50079    0.57241    1.000
    N3974    N        0.64389    0.38743    0.61798    1.000
    Si3975   Si       0.65574    0.26599    0.71485    1.000
    Si3976   Si       0.65562    0.32999    0.74350    1.000
    N3977    N        0.65063    0.37275    0.74197    1.000
    N3978    N        0.64918    0.25796    0.66745    1.000
    N3979    N        0.67700    0.44413    0.73400    1.000
    Si3980   Si       0.65828    0.40637    0.71765    1.000
    N3981    N        0.67178    0.38920    0.68000    1.000
    N3982    N        0.67648    0.48247    0.66420    1.000
    Si3983   Si       0.62989    0.40312    0.65658    1.000
    Si3984   Si       0.67447    0.36203    0.84329    1.000
    N3985    N        0.66881    0.28340    0.82174    1.000
    Si3986   Si       0.68250    0.29270    0.86377    1.000
    N3987    N        0.66006    0.26630    0.76238    1.000
    N3988    N        0.67522    0.38070    0.80208    1.000
    N3989    N        0.69748    0.32835    0.75457    1.000
    Si3990   Si       0.65753    0.45566    0.77266    1.000
    Si3991   Si       0.67856    0.48520    0.84065    1.000
    N3992    N        0.68260    0.45546    0.80715    1.000
    N3993    N        0.68538    0.40009    0.86119    1.000
    N3994    N        0.63662    0.49401    0.77089    1.000
    N3995    N        0.64253    0.28985    0.88282    1.000
    Si3996   Si       0.65221    0.29725    0.98654    1.000
    N3997    N        0.68816    0.31967    0.97792    1.000
    N3998    N        0.65006    0.44146    0.99030    1.000
    Si3999   Si       0.65768    0.39919    0.99432    1.000
    N4000    N        0.65617    0.46438    0.86976    1.000
    Si4001   Si       0.67527    0.42885    0.89058    1.000
    N4002    N        0.63892    0.42355    0.91190    1.000
    N4003    N        0.66052    0.56723    0.06710    1.000
    Si4004   Si       0.65875    0.52562    0.06254    1.000
    N4005    N        0.67459    0.62222    0.03838    1.000
    N4006    N        0.66065    0.62113    0.11437    1.000
    Si4007   Si       0.64032    0.58548    0.10288    1.000
    Si4008   Si       0.64020    0.59088    0.03633    1.000
    Si4009   Si       0.67936    0.65255    0.00809    1.000
    Si4010   Si       0.65632    0.71594    0.08572    1.000
    N4011    N        0.68695    0.68480    0.08626    1.000
    N4012    N        0.68798    0.74320    0.06473    1.000
    N4013    N        0.64124    0.67421    0.00054    1.000
    Si4014   Si       0.67747    0.52396    0.19088    1.000
    N4015    N        0.67935    0.61377    0.23603    1.000
    N4016    N        0.64867    0.51483    0.22203    1.000
    N4017    N        0.67936    0.64847    0.17569    1.000
    Si4018   Si       0.64570    0.63740    0.15273    1.000
    N4019    N        0.65400    0.73728    0.12422    1.000
    N4020    N        0.69264    0.73516    0.18660    1.000
    Si4021   Si       0.66966    0.65288    0.21752    1.000
    Si4022   Si       0.65668    0.75245    0.20652    1.000
    N4023    N        0.67067    0.74919    0.24665    1.000
    Si4024   Si       0.66002    0.60932    0.27463    1.000
    Si4025   Si       0.68440    0.53739    0.33169    1.000
    N4026    N        0.65768    0.60288    0.36353    1.000
    N4027    N        0.68632    0.58397    0.29836    1.000
    N4028    N        0.64057    0.53765    0.33080    1.000
    Si4029   Si       0.69017    0.61169    0.33341    1.000
    N4030    N        0.67062    0.64210    0.30330    1.000
    N4031    N        0.66106    0.70262    0.29421    1.000
    N4032    N        0.65628    0.67027    0.36556    1.000
    Si4033   Si       0.64386    0.67406    0.32312    1.000
    Si4034   Si       0.63813    0.73526    0.27549    1.000
    Si4035   Si       0.69410    0.67742    0.28160    1.000
    N4036    N        0.66175    0.54518    0.40733    1.000
    Si4037   Si       0.68423    0.57653    0.39117    1.000
    Si4038   Si       0.68705    0.52463    0.43691    1.000
    N4039    N        0.69732    0.55840    0.46191    1.000
    N4040    N        0.64545    0.63747    0.42882    1.000
    Si4041   Si       0.67885    0.65602    0.44829    1.000
    N4042    N        0.66078    0.73596    0.37969    1.000
    Si4043   Si       0.68430    0.70019    0.38236    1.000
    N4044    N        0.69423    0.68831    0.42337    1.000
    Si4045   Si       0.63737    0.63782    0.38686    1.000
    N4046    N        0.68030    0.73990    0.47459    1.000
    N4047    N        0.66508    0.67179    0.48343    1.000
    N4048    N        0.66000    0.57839    0.57175    1.000
    Si4049   Si       0.68337    0.61460    0.56598    1.000
    Si4050   Si       0.68756    0.54028    0.56952    1.000
    N4051    N        0.66134    0.60104    0.50403    1.000
    N4052    N        0.63930    0.53147    0.50014    1.000
    Si4053   Si       0.67242    0.56043    0.49817    1.000
    Si4054   Si       0.64653    0.64123    0.50899    1.000
    N4055    N        0.66196    0.64777    0.55008    1.000
    N4056    N        0.68000    0.70982    0.59512    1.000
    Si4057   Si       0.65823    0.68762    0.56620    1.000
    Si4058   Si       0.67716    0.75343    0.58684    1.000
    N4059    N        0.64158    0.71125    0.53171    1.000
    Si4060   Si       0.67620    0.70808    0.50453    1.000
    N4061    N        0.66111    0.55129    0.68031    1.000
    N4062    N        0.65141    0.60606    0.73192    1.000
    Si4063   Si       0.67359    0.58992    0.69909    1.000
    N4064    N        0.67655    0.62407    0.67378    1.000
    Si4065   Si       0.69161    0.51959    0.67900    1.000
    Si4066   Si       0.69398    0.70938    0.71022    1.000
    N4067    N        0.68674    0.73995    0.74050    1.000
    N4068    N        0.66105    0.68174    0.71791    1.000
    N4069    N        0.64634    0.68459    0.65114    1.000
    Si4070   Si       0.68533    0.69978    0.63768    1.000
    Si4071   Si       0.64735    0.65550    0.68469    1.000
    N4072    N        0.69250    0.73046    0.67178    1.000
    N4073    N        0.67995    0.55647    0.77074    1.000
    N4074    N        0.65594    0.52235    0.83142    1.000
    Si4075   Si       0.67247    0.59922    0.76896    1.000
    Si4076   Si       0.64987    0.53368    0.78922    1.000
    Si4077   Si       0.64558    0.55364    0.85950    1.000
    N4078    N        0.68249    0.57871    0.86548    1.000
    N4079    N        0.64204    0.60970    0.80183    1.000
    Si4080   Si       0.66895    0.64567    0.80972    1.000
    N4081    N        0.67748    0.64937    0.85286    1.000
    N4082    N        0.65874    0.68502    0.79484    1.000
    Si4083   Si       0.67090    0.71702    0.82357    1.000
    N4084    N        0.65345    0.71480    0.86413    1.000
    Si4085   Si       0.65259    0.75381    0.76470    1.000
    Si4086   Si       0.63979    0.68718    0.75487    1.000
    N4087    N        0.66266    0.75911    0.80745    1.000
    Si4088   Si       0.67992    0.57666    0.90983    1.000
    N4089    N        0.65608    0.61052    0.91963    1.000
    N4090    N        0.64703    0.54478    0.90108    1.000
    Si4091   Si       0.69368    0.58528    0.98442    1.000
    N4092    N        0.65128    0.57952    0.99573    1.000
    Si4093   Si       0.65817    0.67478    0.88272    1.000
    N4094    N        0.67580    0.73773    0.98769    1.000
    N4095    N        0.66720    0.74809    0.92019    1.000
    N4096    N        0.68204    0.67773    0.91686    1.000
    Si4097   Si       0.68766    0.63728    0.93300    1.000
    Si4098   Si       0.63546    0.74759    0.88681    1.000
    N4099    N        0.66094    0.85839    0.04254    1.000
    N4100    N        0.66828    0.79518    0.02539    1.000
    Si4101   Si       0.65544    0.84997    0.08501    1.000
    Si4102   Si       0.69065    0.83222    0.02450    1.000
    N4103    N        0.63873    0.80933    0.08903    1.000
    Si4104   Si       0.64600    0.95721    0.07293    1.000
    N4105    N        0.64473    0.92897    0.04180    1.000
    N4106    N        0.64181    0.94673    0.11724    1.000
    N4107    N        0.69024    0.96449    0.07730    1.000
    Si4108   Si       0.68632    0.94599    0.11771    1.000
    Si4109   Si       0.64859    0.78154    0.12198    1.000
    N4110    N        0.66548    0.86423    0.22911    1.000
    Si4111   Si       0.67311    0.82143    0.23339    1.000
    N4112    N        0.64879    0.79648    0.20473    1.000
    N4113    N        0.69027    0.78655    0.13399    1.000
    Si4114   Si       0.64081    0.88008    0.19701    1.000
    Si4115   Si       0.67730    0.97220    0.24546    1.000
    Si4116   Si       0.69179    0.00608    0.17536    1.000
    N4117    N        0.65786    0.89117    0.15918    1.000
    N4118    N        0.63612    0.98522    0.23594    1.000
    N4119    N        0.66551    0.81727    0.27574    1.000
    N4120    N        0.67173    0.84116    0.33842    1.000
    Si4121   Si       0.64895    0.87542    0.31783    1.000
    N4122    N        0.68661    0.88081    0.29170    1.000
    N4123    N        0.63573    0.76701    0.30676    1.000
    N4124    N        0.68428    0.93396    0.25979    1.000
    Si4125   Si       0.65867    0.89723    0.25762    1.000
    N4126    N        0.69124    0.94352    0.35286    1.000
    Si4127   Si       0.66483    0.97498    0.36655    1.000
    N4128    N        0.63780    0.99950    0.34289    1.000
    N4129    N        0.63918    0.90015    0.35259    1.000
    Si4130   Si       0.66542    0.78129    0.47273    1.000
    Si4131   Si       0.66194    0.84036    0.38029    1.000
    N4132    N        0.67759    0.80162    0.39273    1.000
    N4133    N        0.68148    0.87476    0.39673    1.000
    Si4134   Si       0.64368    0.77294    0.40106    1.000
    N4135    N        0.63091    0.92620    0.46894    1.000
    Si4136   Si       0.65497    0.89191    0.47207    1.000
    Si4137   Si       0.66802    0.91581    0.38080    1.000
    N4138    N        0.68886    0.99408    0.39527    1.000
    N4139    N        0.68081    0.98469    0.45967    1.000
    N4140    N        0.63799    0.95006    0.38841    1.000
    Si4141   Si       0.64581    0.01017    0.45458    1.000
    Si4142   Si       0.67123    0.84860    0.59787    1.000
    N4143    N        0.65117    0.81827    0.57386    1.000
    Si4144   Si       0.67706    0.80679    0.54069    1.000
    N4145    N        0.65099    0.80261    0.50656    1.000
    N4146    N        0.69591    0.76779    0.55118    1.000
    N4147    N        0.66453    0.88756    0.51499    1.000
    N4148    N        0.65675    0.88651    0.58299    1.000
    N4149    N        0.66526    0.95687    0.59027    1.000
    N4150    N        0.65695    0.96509    0.52217    1.000
    Si4151   Si       0.65475    0.91877    0.61276    1.000
    Si4152   Si       0.69013    0.98513    0.50228    1.000
    N4153    N        0.67049    0.79297    0.67964    1.000
    N4154    N        0.66279    0.84778    0.64142    1.000
    Si4155   Si       0.63950    0.81641    0.66358    1.000
    Si4156   Si       0.69576    0.87210    0.65614    1.000
    N4157    N        0.68934    0.88408    0.69706    1.000
    Si4158   Si       0.65782    0.91480    0.70626    1.000
    N4159    N        0.69054    0.91186    0.63706    1.000
    N4160    N        0.66806    0.95096    0.68640    1.000
    Si4161   Si       0.64592    0.98991    0.68406    1.000
    N4162    N        0.67046    0.91306    0.74887    1.000
    Si4163   Si       0.65966    0.79719    0.83033    1.000
    Si4164   Si       0.64952    0.82740    0.76194    1.000
    Si4165   Si       0.69007    0.86778    0.84261    1.000
    N4166    N        0.64124    0.82542    0.80448    1.000
    N4167    N        0.69128    0.83771    0.75327    1.000
    N4168    N        0.65356    0.87853    0.86916    1.000
    N4169    N        0.63891    0.78594    0.86693    1.000
    N4170    N        0.68672    0.89020    0.80824    1.000
    N4171    N        0.64555    0.95055    0.79544    1.000
    Si4172   Si       0.65040    0.99301    0.79905    1.000
    Si4173   Si       0.68154    0.92717    0.78848    1.000
    Si4174   Si       0.66966    0.76932    0.95672    1.000
    Si4175   Si       0.67428    0.87318    0.90840    1.000
    N4176    N        0.64590    0.86516    0.94130    1.000
    N4177    N        0.65890    0.95421    0.97287    1.000
    N4178    N        0.67132    0.97856    0.90672    1.000
    N4179    N        0.68319    0.91167    0.92374    1.000
    Si4180   Si       0.64611    0.00308    0.87839    1.000
    Si4181   Si       0.64791    0.91182    0.94959    1.000
    Si4182   Si       0.66036    0.98883    0.94701    1.000
    N4183    N        0.71411    0.03124    0.04128    1.000
    Si4184   Si       0.71149    0.07393    0.03189    1.000
    N4185    N        0.74920    0.08271    0.01182    1.000
    N4186    N        0.73204    0.15857    0.07932    1.000
    N4187    N        0.72861    0.21229    0.03104    1.000
    Si4188   Si       0.74649    0.24862    0.04910    1.000
    Si4189   Si       0.73768    0.22154    0.11470    1.000
    N4190    N        0.71544    0.07328    0.12439    1.000
    N4191    N        0.73140    0.05698    0.24285    1.000
    N4192    N        0.72597    0.03108    0.17447    1.000
    Si4193   Si       0.70888    0.10162    0.15578    1.000
    Si4194   Si       0.74250    0.04015    0.13246    1.000
    N4195    N        0.74840    0.09639    0.17714    1.000
    Si4196   Si       0.74725    0.05733    0.20133    1.000
    Si4197   Si       0.74331    0.12670    0.20665    1.000
    Si4198   Si       0.72227    0.24866    0.23077    1.000
    N4199    N        0.70387    0.14506    0.21185    1.000
    Si4200   Si       0.74489    0.14852    0.11944    1.000
    N4201    N        0.75084    0.25496    0.14152    1.000
    N4202    N        0.70843    0.13993    0.13890    1.000
    N4203    N        0.74882    0.18675    0.13868    1.000
    N4204    N        0.72587    0.21686    0.19997    1.000
    Si4205   Si       0.69475    0.18714    0.19912    1.000
    Si4206   Si       0.70995    0.07062    0.33253    1.000
    N4207    N        0.73670    0.11053    0.29095    1.000
    Si4208   Si       0.72322    0.02256    0.26935    1.000
    N4209    N        0.72761    0.03828    0.30911    1.000
    N4210    N        0.74934    0.07428    0.35436    1.000
    N4211    N        0.71014    0.23425    0.27092    1.000
    N4212    N        0.71565    0.21128    0.33314    1.000
    Si4213   Si       0.73419    0.23935    0.30358    1.000
    Si4214   Si       0.70827    0.17470    0.35880    1.000
    N4215    N        0.74535    0.15215    0.34036    1.000
    Si4216   Si       0.74272    0.15438    0.29722    1.000
    Si4217   Si       0.71559    0.24448    0.36530    1.000
    N4218    N        0.70190    0.16338    0.28190    1.000
    N4219    N        0.71905    0.06045    0.41682    1.000
    N4220    N        0.74234    0.11524    0.45250    1.000
    Si4221   Si       0.70945    0.08902    0.44733    1.000
    Si4222   Si       0.74581    0.14097    0.41652    1.000
    N4223    N        0.73113    0.23227    0.45949    1.000
    N4224    N        0.70797    0.14574    0.39430    1.000
    Si4225   Si       0.73247    0.21634    0.41811    1.000
    N4226    N        0.69702    0.21099    0.39022    1.000
    Si4227   Si       0.69783    0.25253    0.48100    1.000
    N4228    N        0.71942    0.06457    0.56867    1.000
    Si4229   Si       0.74037    0.10156    0.56377    1.000
    Si4230   Si       0.74001    0.03143    0.54834    1.000
    N4231    N        0.71184    0.02161    0.51544    1.000
    N4232    N        0.71110    0.13235    0.56176    1.000
    Si4233   Si       0.72748    0.16684    0.54101    1.000
    N4234    N        0.72867    0.23942    0.58090    1.000
    N4235    N        0.74399    0.16740    0.50072    1.000
    N4236    N        0.72959    0.05189    0.71880    1.000
    N4237    N        0.72049    0.06072    0.64994    1.000
    Si4238   Si       0.75138    0.05643    0.68079    1.000
    Si4239   Si       0.70064    0.09886    0.64516    1.000
    Si4240   Si       0.69562    0.02524    0.64670    1.000
    N4241    N        0.73189    0.11249    0.74071    1.000
    N4242    N        0.75465    0.19705    0.63226    1.000
    Si4243   Si       0.71061    0.13387    0.70998    1.000
    Si4244   Si       0.72343    0.17655    0.65565    1.000
    N4245    N        0.74231    0.15727    0.69016    1.000
    N4246    N        0.70840    0.14058    0.63470    1.000
    N4247    N        0.72151    0.06567    0.79047    1.000
    Si4248   Si       0.71978    0.10827    0.78348    1.000
    Si4249   Si       0.73003    0.09889    0.85306    1.000
    N4250    N        0.74250    0.12219    0.81720    1.000
    Si4251   Si       0.74748    0.04796    0.75891    1.000
    N4252    N        0.72125    0.00993    0.83329    1.000
    N4253    N        0.72351    0.18546    0.83899    1.000
    N4254    N        0.75261    0.01961    0.98190    1.000
    N4255    N        0.72591    0.08010    0.93558    1.000
    Si4256   Si       0.70602    0.11507    0.92097    1.000
    N4257    N        0.73554    0.01872    0.90923    1.000
    N4258    N        0.72751    0.12861    0.88509    1.000
    Si4259   Si       0.74977    0.06573    0.97110    1.000
    Si4260   Si       0.75142    0.05921    0.90914    1.000
    N4261    N        0.71711    0.19494    0.90963    1.000
    N4262    N        0.71402    0.14257    0.95653    1.000
    Si4263   Si       0.72364    0.18458    0.95264    1.000
    Si4264   Si       0.73579    0.17007    0.88079    1.000
    Si4265   Si       0.72561    0.31565    0.07507    1.000
    N4266    N        0.71661    0.27249    0.07192    1.000
    N4267    N        0.74149    0.32071    0.11434    1.000
    Si4268   Si       0.71935    0.37570    0.06665    1.000
    N4269    N        0.74846    0.38997    0.10050    1.000
    N4270    N        0.74045    0.40141    0.03815    1.000
    N4271    N        0.70542    0.45823    0.02750    1.000
    N4272    N        0.74156    0.45067    0.08817    1.000
    Si4273   Si       0.72352    0.47761    0.05922    1.000
    Si4274   Si       0.72174    0.42364    0.00580    1.000
    Si4275   Si       0.71731    0.42098    0.11010    1.000
    Si4276   Si       0.72812    0.29241    0.14353    1.000
    N4277    N        0.73593    0.31256    0.18071    1.000
    N4278    N        0.70654    0.34074    0.23854    1.000
    Si4279   Si       0.69754    0.31481    0.20500    1.000
    N4280    N        0.75410    0.27829    0.23596    1.000
    Si4281   Si       0.72852    0.47831    0.22992    1.000
    N4282    N        0.71152    0.49516    0.19568    1.000
    N4283    N        0.73770    0.38838    0.17711    1.000
    Si4284   Si       0.72834    0.47818    0.15748    1.000
    N4285    N        0.70010    0.44604    0.14328    1.000
    N4286    N        0.74501    0.43739    0.22693    1.000
    N4287    N        0.73073    0.27270    0.32984    1.000
    N4288    N        0.70866    0.32986    0.30079    1.000
    Si4289   Si       0.73745    0.34242    0.26978    1.000
    Si4290   Si       0.74284    0.31454    0.32788    1.000
    N4291    N        0.73506    0.34092    0.36114    1.000
    N4292    N        0.75693    0.38232    0.27155    1.000
    Si4293   Si       0.73183    0.41902    0.26330    1.000
    N4294    N        0.74017    0.44783    0.29673    1.000
    N4295    N        0.74028    0.45588    0.36366    1.000
    Si4296   Si       0.70827    0.47727    0.29637    1.000
    N4297    N        0.69969    0.39691    0.34557    1.000
    Si4298   Si       0.71616    0.31810    0.45308    1.000
    N4299    N        0.70755    0.35857    0.46004    1.000
    N4300    N        0.75163    0.31613    0.42704    1.000
    N4301    N        0.73632    0.30664    0.49060    1.000
    Si4302   Si       0.75060    0.43782    0.43930    1.000
    N4303    N        0.72206    0.41488    0.41543    1.000
    Si4304   Si       0.70720    0.42865    0.37612    1.000
    Si4305   Si       0.72955    0.49473    0.37653    1.000
    N4306    N        0.72745    0.44708    0.47590    1.000
    N4307    N        0.72358    0.50848    0.41736    1.000
    Si4308   Si       0.73627    0.27837    0.59860    1.000
    N4309    N        0.71883    0.30780    0.57039    1.000
    Si4310   Si       0.71325    0.30430    0.52690    1.000
    Si4311   Si       0.71360    0.36559    0.50148    1.000
    N4312    N        0.74829    0.37647    0.52655    1.000
    N4313    N        0.69475    0.26306    0.52285    1.000
    Si4314   Si       0.72937    0.39739    0.56089    1.000
    N4315    N        0.71009    0.43829    0.56611    1.000
    Si4316   Si       0.74083    0.46826    0.57583    1.000
    N4317    N        0.74116    0.49024    0.53997    1.000
    N4318    N        0.72960    0.48561    0.61398    1.000
    Si4319   Si       0.75329    0.47293    0.50097    1.000
    Si4320   Si       0.74171    0.36957    0.71323    1.000
    Si4321   Si       0.72911    0.31740    0.65620    1.000
    N4322    N        0.70794    0.35003    0.63267    1.000
    N4323    N        0.72429    0.33329    0.69668    1.000
    N4324    N        0.71562    0.27935    0.63814    1.000
    Si4325   Si       0.71981    0.29994    0.72814    1.000
    N4326    N        0.69933    0.27054    0.70526    1.000
    N4327    N        0.70715    0.51021    0.71897    1.000
    Si4328   Si       0.71133    0.46306    0.64549    1.000
    N4329    N        0.73598    0.45822    0.67966    1.000
    N4330    N        0.69915    0.42500    0.62937    1.000
    Si4331   Si       0.71207    0.46725    0.71899    1.000
    N4332    N        0.74272    0.39414    0.67712    1.000
    Si4333   Si       0.70481    0.38884    0.65408    1.000
    Si4334   Si       0.71001    0.36222    0.77939    1.000
    N4335    N        0.73565    0.34338    0.81027    1.000
    N4336    N        0.73273    0.26985    0.78810    1.000
    Si4337   Si       0.74811    0.30190    0.81448    1.000
    N4338    N        0.69631    0.33316    0.86810    1.000
    N4339    N        0.73138    0.38744    0.75146    1.000
    N4340    N        0.73820    0.40795    0.81404    1.000
    N4341    N        0.71614    0.49697    0.85860    1.000
    N4342    N        0.74169    0.45724    0.75044    1.000
    Si4343   Si       0.69688    0.41705    0.82341    1.000
    Si4344   Si       0.74802    0.27507    0.89325    1.000
    N4345    N        0.72205    0.37201    0.92858    1.000
    Si4346   Si       0.72897    0.34472    0.89493    1.000
    Si4347   Si       0.71463    0.35294    0.96731    1.000
    N4348    N        0.74628    0.31011    0.91946    1.000
    N4349    N        0.70808    0.26372    0.88363    1.000
    N4350    N        0.75221    0.34035    0.98379    1.000
    Si4351   Si       0.75291    0.48140    0.96796    1.000
    N4352    N        0.71209    0.43840    0.90759    1.000
    N4353    N        0.74049    0.44010    0.96895    1.000
    N4354    N        0.69871    0.38917    0.98689    1.000
    Si4355   Si       0.74002    0.41275    0.93130    1.000
    N4356    N        0.73431    0.50094    0.93317    1.000
    Si4357   Si       0.73012    0.47768    0.89793    1.000
    N4358    N        0.71558    0.57170    0.02010    1.000
    N4359    N        0.72386    0.57070    0.09131    1.000
    Si4360   Si       0.72965    0.52928    0.09556    1.000
    Si4361   Si       0.74718    0.60313    0.10979    1.000
    Si4362   Si       0.74762    0.54419    0.02492    1.000
    Si4363   Si       0.70203    0.59180    0.05702    1.000
    N4364    N        0.72772    0.62925    0.06815    1.000
    N4365    N        0.75272    0.51508    0.05972    1.000
    Si4366   Si       0.71928    0.71462    0.08053    1.000
    N4367    N        0.73721    0.74763    0.01783    1.000
    N4368    N        0.71395    0.67788    0.00849    1.000
    Si4369   Si       0.69576    0.64491    0.09816    1.000
    Si4370   Si       0.73994    0.54988    0.16464    1.000
    Si4371   Si       0.70856    0.58759    0.21569    1.000
    N4372    N        0.73806    0.61563    0.19709    1.000
    N4373    N        0.73575    0.51488    0.13609    1.000
    N4374    N        0.70202    0.55921    0.18375    1.000
    N4375    N        0.73363    0.56266    0.24357    1.000
    N4376    N        0.72839    0.72445    0.12349    1.000
    Si4377   Si       0.72174    0.64809    0.17114    1.000
    N4378    N        0.74037    0.68716    0.18519    1.000
    N4379    N        0.72477    0.63611    0.13117    1.000
    Si4380   Si       0.71464    0.70773    0.21207    1.000
    N4381    N        0.73854    0.73648    0.23765    1.000
    N4382    N        0.69341    0.67948    0.23862    1.000
    Si4383   Si       0.69474    0.74231    0.14375    1.000
    Si4384   Si       0.72121    0.56171    0.28478    1.000
    N4385    N        0.70694    0.56677    0.35658    1.000
    N4386    N        0.70832    0.52256    0.29933    1.000
    Si4387   Si       0.74935    0.56089    0.35002    1.000
    N4388    N        0.72273    0.63525    0.34964    1.000
    N4389    N        0.73281    0.69278    0.29669    1.000
    Si4390   Si       0.74180    0.67417    0.33578    1.000
    N4391    N        0.72494    0.70375    0.36422    1.000
    N4392    N        0.71392    0.59783    0.41344    1.000
    Si4393   Si       0.74154    0.62025    0.38693    1.000
    Si4394   Si       0.72318    0.59382    0.45631    1.000
    N4395    N        0.75243    0.51318    0.48260    1.000
    N4396    N        0.75829    0.58737    0.48186    1.000
    Si4397   Si       0.70776    0.72477    0.44437    1.000
    N4398    N        0.71534    0.63765    0.46469    1.000
    N4399    N        0.72201    0.75203    0.41443    1.000
    N4400    N        0.74491    0.70944    0.45901    1.000
    Si4401   Si       0.74792    0.73613    0.38432    1.000
    Si4402   Si       0.74493    0.66630    0.45149    1.000
    N4403    N        0.72115    0.54960    0.59400    1.000
    N4404    N        0.72374    0.60818    0.54968    1.000
    Si4405   Si       0.73990    0.53067    0.52248    1.000
    Si4406   Si       0.73396    0.59230    0.59035    1.000
    N4407    N        0.69952    0.54453    0.52855    1.000
    N4408    N        0.70134    0.61971    0.60639    1.000
    Si4409   Si       0.75966    0.59873    0.52639    1.000
    Si4410   Si       0.73001    0.74427    0.53616    1.000
    N4411    N        0.71055    0.70616    0.53013    1.000
    N4412    N        0.75568    0.74581    0.57120    1.000
    Si4413   Si       0.74331    0.52525    0.62322    1.000
    Si4414   Si       0.74045    0.57031    0.68577    1.000
    N4415    N        0.74306    0.60750    0.66154    1.000
    N4416    N        0.73135    0.53557    0.66329    1.000
    N4417    N        0.71176    0.57758    0.71576    1.000
    Si4418   Si       0.70900    0.63213    0.64712    1.000
    N4419    N        0.71741    0.67322    0.64051    1.000
    N4420    N        0.72989    0.69565    0.73114    1.000
    Si4421   Si       0.74239    0.62466    0.80036    1.000
    N4422    N        0.74492    0.53010    0.77109    1.000
    N4423    N        0.74347    0.62148    0.84505    1.000
    Si4424   Si       0.70568    0.61726    0.86593    1.000
    N4425    N        0.69961    0.62592    0.78785    1.000
    Si4426   Si       0.71448    0.54485    0.74519    1.000
    N4427    N        0.71281    0.70982    0.82701    1.000
    Si4428   Si       0.74991    0.70102    0.81371    1.000
    Si4429   Si       0.73497    0.74182    0.74729    1.000
    N4430    N        0.75705    0.66384    0.79329    1.000
    N4431    N        0.70070    0.62814    0.97420    1.000
    Si4432   Si       0.73319    0.53801    0.95414    1.000
    N4433    N        0.71650    0.61304    0.90752    1.000
    N4434    N        0.74205    0.51611    0.99135    1.000
    N4435    N        0.69746    0.55997    0.94879    1.000
    N4436    N        0.73043    0.71241    0.95416    1.000
    N4437    N        0.73251    0.73352    0.89551    1.000
    Si4438   Si       0.73991    0.64860    0.98392    1.000
    Si4439   Si       0.69925    0.71759    0.91985    1.000
    Si4440   Si       0.71297    0.71755    0.99473    1.000
    N4441    N        0.72791    0.81042    0.03791    1.000
    Si4442   Si       0.70580    0.77213    0.03502    1.000
    Si4443   Si       0.74141    0.87924    0.01195    1.000
    N4444    N        0.69806    0.84679    0.09743    1.000
    Si4445   Si       0.72277    0.88233    0.08653    1.000
    Si4446   Si       0.72283    0.94256    0.05630    1.000
    N4447    N        0.72313    0.90065    0.04665    1.000
    N4448    N        0.72854    0.96537    0.01782    1.000
    Si4449   Si       0.74329    0.00601    0.02382    1.000
    Si4450   Si       0.70150    0.00837    0.07684    1.000
    N4451    N        0.73598    0.00790    0.10316    1.000
    Si4452   Si       0.71264    0.82382    0.13148    1.000
    N4453    N        0.71286    0.80325    0.23099    1.000
    N4454    N        0.71056    0.84470    0.16968    1.000
    Si4455   Si       0.73327    0.81628    0.19652    1.000
    N4456    N        0.70722    0.90822    0.11763    1.000
    N4457    N        0.69739    0.97011    0.15183    1.000
    N4458    N        0.72598    0.90873    0.18639    1.000
    N4459    N        0.70044    0.97923    0.21104    1.000
    Si4460   Si       0.70067    0.88745    0.15882    1.000
    Si4461   Si       0.72495    0.95184    0.18357    1.000
    N4462    N        0.73568    0.83036    0.32001    1.000
    N4463    N        0.73155    0.76674    0.29382    1.000
    Si4464   Si       0.70962    0.76653    0.25574    1.000
    Si4465   Si       0.69577    0.83785    0.30295    1.000
    Si4466   Si       0.75356    0.79117    0.32224    1.000
    N4467    N        0.74225    0.88980    0.35931    1.000
    Si4468   Si       0.73338    0.93188    0.34667    1.000
    Si4469   Si       0.71602    0.91407    0.28076    1.000
    N4470    N        0.73845    0.94274    0.30600    1.000
    N4471    N        0.74607    0.89781    0.25656    1.000
    Si4472   Si       0.71192    0.79439    0.41799    1.000
    N4473    N        0.70338    0.80034    0.46046    1.000
    Si4474   Si       0.73355    0.80395    0.49027    1.000
    N4475    N        0.74695    0.81835    0.41102    1.000
    N4476    N        0.69727    0.87788    0.46328    1.000
    N4477    N        0.75376    0.88843    0.42633    1.000
    N4478    N        0.69430    0.93052    0.41985    1.000
    Si4479   Si       0.71028    0.89193    0.42543    1.000
    N4480    N        0.74812    0.97585    0.44071    1.000
    Si4481   Si       0.70603    0.97025    0.42796    1.000
    N4482    N        0.71449    0.82791    0.52346    1.000
    N4483    N        0.71317    0.84308    0.58671    1.000
    Si4484   Si       0.74336    0.84977    0.55262    1.000
    Si4485   Si       0.70241    0.86886    0.50580    1.000
    N4486    N        0.70250    0.76862    0.61756    1.000
    N4487    N        0.74680    0.76272    0.49931    1.000
    Si4488   Si       0.74660    0.83812    0.61385    1.000
    Si4489   Si       0.74674    0.76249    0.60984    1.000
    N4490    N        0.73431    0.88547    0.52884    1.000
    N4491    N        0.73254    0.99672    0.57675    1.000
    N4492    N        0.72264    0.95585    0.50835    1.000
    Si4493   Si       0.74929    0.92516    0.52931    1.000
    Si4494   Si       0.69529    0.98670    0.59908    1.000
    N4495    N        0.73215    0.85074    0.65236    1.000
    N4496    N        0.74418    0.78359    0.66942    1.000
    Si4497   Si       0.70139    0.77249    0.66050    1.000
    Si4498   Si       0.69782    0.87860    0.73959    1.000
    N4499    N        0.74302    0.94970    0.68222    1.000
    N4500    N        0.71284    0.98489    0.64143    1.000
    Si4501   Si       0.70363    0.94529    0.66295    1.000
    Si4502   Si       0.73761    0.81910    0.83649    1.000
    Si4503   Si       0.73209    0.82315    0.76045    1.000
    N4504    N        0.73587    0.78192    0.76579    1.000
    N4505    N        0.74430    0.77527    0.83623    1.000
    N4506    N        0.75092    0.83772    0.79841    1.000
    N4507    N        0.69604    0.82487    0.84133    1.000
    N4508    N        0.72338    0.88693    0.86633    1.000
    N4509    N        0.71800    0.94937    0.78914    1.000
    Si4510   Si       0.72446    0.99129    0.79035    1.000
    Si4511   Si       0.74718    0.92271    0.85628    1.000
    Si4512   Si       0.75188    0.92467    0.77827    1.000
    Si4513   Si       0.73907    0.99898    0.87018    1.000
    N4514    N        0.73846    0.89347    0.75039    1.000
    Si4515   Si       0.71946    0.83266    0.95739    1.000
    N4516    N        0.71129    0.84857    0.91601    1.000
    Si4517   Si       0.74689    0.85813    0.89219    1.000
    N4518    N        0.70479    0.79350    0.95808    1.000
    N4519    N        0.70928    0.85531    0.99301    1.000
    Si4520   Si       0.70250    0.94925    0.91348    1.000
    Si4521   Si       0.74824    0.94786    0.98231    1.000
    N4522    N        0.72779    0.95583    0.87789    1.000
    N4523    N        0.72869    0.96214    0.94490    1.000
    Si4524   Si       0.72548    0.00450    0.94895    1.000
    Si4525   Si       0.77866    0.11540    0.01613    1.000
    N4526    N        0.80489    0.10769    0.05129    1.000
    Si4527   Si       0.80685    0.13007    0.08845    1.000
    N4528    N        0.76670    0.15896    0.02209    1.000
    N4529    N        0.76529    0.22419    0.08059    1.000
    N4530    N        0.80058    0.17027    0.07254    1.000
    Si4531   Si       0.80365    0.24843    0.07479    1.000
    Si4532   Si       0.75973    0.18388    0.05653    1.000
    N4533    N        0.77879    0.12437    0.12028    1.000
    Si4534   Si       0.78484    0.09510    0.15190    1.000
    N4535    N        0.78549    0.05504    0.13558    1.000
    N4536    N        0.78685    0.03976    0.20385    1.000
    N4537    N        0.77013    0.11478    0.23721    1.000
    Si4538   Si       0.79347    0.25440    0.15209    1.000
    Si4539   Si       0.75985    0.19940    0.17669    1.000
    Si4540   Si       0.78819    0.15492    0.23697    1.000
    N4541    N        0.76493    0.16482    0.20133    1.000
    N4542    N        0.79913    0.21508    0.17197    1.000
    N4543    N        0.79237    0.06199    0.27497    1.000
    Si4544   Si       0.76783    0.11484    0.34926    1.000
    N4545    N        0.80530    0.11737    0.32726    1.000
    Si4546   Si       0.75713    0.08427    0.26570    1.000
    Si4547   Si       0.76045    0.03002    0.33852    1.000
    N4548    N        0.77598    0.17158    0.27422    1.000
    N4549    N        0.77552    0.24053    0.28983    1.000
    Si4550   Si       0.79811    0.20437    0.29237    1.000
    N4551    N        0.81321    0.19248    0.33215    1.000
    N4552    N        0.80029    0.05622    0.40845    1.000
    N4553    N        0.77857    0.11754    0.39396    1.000
    Si4554   Si       0.75902    0.12900    0.48962    1.000
    Si4555   Si       0.75664    0.05878    0.39720    1.000
    N4556    N        0.75632    0.01708    0.37913    1.000
    N4557    N        0.81620    0.06989    0.49541    1.000
    N4558    N        0.79794    0.21046    0.48448    1.000
    N4559    N        0.75275    0.18024    0.43182    1.000
    N4560    N        0.80226    0.13995    0.48309    1.000
    Si4561   Si       0.75609    0.19763    0.47238    1.000
    Si4562   Si       0.81297    0.24860    0.47133    1.000
    N4563    N        0.75361    0.24027    0.38878    1.000
    Si4564   Si       0.79702    0.07822    0.53335    1.000
    N4565    N        0.76836    0.10351    0.59413    1.000
    N4566    N        0.78371    0.04146    0.54988    1.000
    N4567    N        0.76302    0.10376    0.52760    1.000
    Si4568   Si       0.81080    0.11029    0.59460    1.000
    Si4569   Si       0.80722    0.18051    0.56901    1.000
    N4570    N        0.80520    0.21913    0.58628    1.000
    N4571    N        0.76335    0.17864    0.56437    1.000
    Si4572   Si       0.76098    0.21167    0.59221    1.000
    N4573    N        0.77083    0.01822    0.67175    1.000
    N4574    N        0.78291    0.08675    0.68614    1.000
    Si4575   Si       0.77196    0.10074    0.72715    1.000
    N4576    N        0.79378    0.20213    0.69989    1.000
    N4577    N        0.79236    0.13796    0.73084    1.000
    Si4578   Si       0.78474    0.16028    0.69227    1.000
    N4579    N        0.81440    0.14131    0.66350    1.000
    Si4580   Si       0.79578    0.04837    0.86046    1.000
    N4581    N        0.78352    0.07153    0.75736    1.000
    N4582    N        0.80850    0.05915    0.82148    1.000
    N4583    N        0.76018    0.07104    0.86801    1.000
    N4584    N        0.75860    0.00704    0.76930    1.000
    N4585    N        0.79929    0.23687    0.76319    1.000
    N4586    N        0.79017    0.17341    0.79470    1.000
    N4587    N        0.79571    0.23247    0.83559    1.000
    Si4588   Si       0.75967    0.16383    0.82414    1.000
    N4589    N        0.77766    0.17618    0.86562    1.000
    Si4590   Si       0.80829    0.21469    0.79894    1.000
    Si4591   Si       0.81351    0.15068    0.76453    1.000
    N4592    N        0.78233    0.05764    0.94042    1.000
    N4593    N        0.79953    0.12834    0.98000    1.000
    N4594    N        0.77241    0.24066    0.90451    1.000
    Si4595   Si       0.78949    0.17149    0.98794    1.000
    Si4596   Si       0.78221    0.23598    0.94732    1.000
    N4597    N        0.76398    0.19722    0.96358    1.000
    Si4598   Si       0.79571    0.21410    0.87742    1.000
    Si4599   Si       0.77063    0.35259    0.10595    1.000
    Si4600   Si       0.76245    0.36549    0.01897    1.000
    Si4601   Si       0.80961    0.28013    0.00520    1.000
    N4602    N        0.78594    0.26695    0.03945    1.000
    N4603    N        0.80998    0.34199    0.08793    1.000
    N4604    N        0.81107    0.26623    0.11251    1.000
    N4605    N        0.75338    0.34365    0.05589    1.000
    N4606    N        0.79761    0.38876    0.01636    1.000
    Si4607   Si       0.78955    0.49263    0.06226    1.000
    Si4608   Si       0.76906    0.42447    0.06454    1.000
    N4609    N        0.78017    0.45790    0.03560    1.000
    N4610    N        0.80969    0.41552    0.08043    1.000
    N4611    N        0.81326    0.48292    0.09633    1.000
    Si4612   Si       0.81288    0.46713    0.00697    1.000
    N4613    N        0.78515    0.34216    0.21049    1.000
    Si4614   Si       0.77274    0.30057    0.20518    1.000
    N4615    N        0.78965    0.35872    0.14508    1.000
    N4616    N        0.80432    0.27905    0.18456    1.000
    Si4617   Si       0.75961    0.35242    0.17494    1.000
    N4618    N        0.79972    0.41119    0.20324    1.000
    Si4619   Si       0.80445    0.47815    0.16307    1.000
    Si4620   Si       0.78806    0.45877    0.23401    1.000
    Si4621   Si       0.76199    0.42267    0.18875    1.000
    N4622    N        0.76703    0.49567    0.24016    1.000
    N4623    N        0.76589    0.45974    0.16394    1.000
    Si4624   Si       0.77927    0.27844    0.27031    1.000
    N4625    N        0.76843    0.31497    0.29040    1.000
    N4626    N        0.79838    0.47636    0.32590    1.000
    Si4627   Si       0.79428    0.40059    0.28397    1.000
    N4628    N        0.79400    0.40989    0.32744    1.000
    Si4629   Si       0.76780    0.44526    0.33106    1.000
    N4630    N        0.80371    0.43995    0.26844    1.000
    N4631    N        0.78755    0.29699    0.36540    1.000
    N4632    N        0.80232    0.35085    0.40145    1.000
    Si4633   Si       0.77417    0.30144    0.46532    1.000
    Si4634   Si       0.76684    0.32816    0.38940    1.000
    Si4635   Si       0.80038    0.36789    0.44224    1.000
    N4636    N        0.79152    0.34170    0.47489    1.000
    N4637    N        0.79459    0.27013    0.43695    1.000
    Si4638   Si       0.79002    0.26240    0.39666    1.000
    Si4639   Si       0.81253    0.42482    0.47444    1.000
    N4640    N        0.77819    0.46947    0.42834    1.000
    N4641    N        0.78084    0.40705    0.45042    1.000
    N4642    N        0.79481    0.46043    0.49622    1.000
    N4643    N        0.77855    0.28780    0.59580    1.000
    Si4644   Si       0.78682    0.36664    0.51299    1.000
    N4645    N        0.80197    0.33754    0.54286    1.000
    Si4646   Si       0.80887    0.31175    0.57632    1.000
    N4647    N        0.79714    0.28024    0.49720    1.000
    N4648    N        0.78198    0.46058    0.58380    1.000
    Si4649   Si       0.79361    0.42094    0.59967    1.000
    N4650    N        0.76034    0.39605    0.59095    1.000
    Si4651   Si       0.80992    0.49410    0.59227    1.000
    N4652    N        0.78446    0.35656    0.71644    1.000
    N4653    N        0.76383    0.29300    0.73320    1.000
    N4654    N        0.77236    0.30721    0.66245    1.000
    Si4655   Si       0.80008    0.29334    0.63279    1.000
    Si4656   Si       0.78568    0.31466    0.70251    1.000
    N4657    N        0.79221    0.43027    0.64233    1.000
    N4658    N        0.80087    0.42461    0.70833    1.000
    Si4659   Si       0.76847    0.42778    0.67841    1.000
    Si4660   Si       0.79763    0.27630    0.83981    1.000
    N4661    N        0.78969    0.29714    0.80127    1.000
    N4662    N        0.80024    0.36534    0.81844    1.000
    Si4663   Si       0.77210    0.27041    0.76910    1.000
    Si4664   Si       0.75918    0.37227    0.83211    1.000
    N4665    N        0.76044    0.29027    0.85596    1.000
    N4666    N        0.79766    0.42643    0.78255    1.000
    N4667    N        0.76826    0.47975    0.80915    1.000
    Si4668   Si       0.80261    0.45547    0.81542    1.000
    Si4669   Si       0.76447    0.49045    0.76714    1.000
    N4670    N        0.80571    0.43101    0.85185    1.000
    Si4671   Si       0.75664    0.50023    0.84522    1.000
    N4672    N        0.80384    0.49123    0.74662    1.000
    Si4673   Si       0.75292    0.42145    0.77310    1.000
    N4674    N        0.76510    0.36255    0.87507    1.000
    N4675    N        0.80521    0.34370    0.93741    1.000
    N4676    N        0.78349    0.27536    0.96720    1.000
    Si4677   Si       0.79696    0.37257    0.90272    1.000
    Si4678   Si       0.77373    0.31642    0.95171    1.000
    N4679    N        0.77234    0.47891    0.88275    1.000
    Si4680   Si       0.79905    0.44454    0.89249    1.000
    N4681    N        0.79553    0.47792    0.96861    1.000
    N4682    N        0.78199    0.41119    0.91649    1.000
    N4683    N        0.78507    0.56448    0.01839    1.000
    N4684    N        0.78325    0.60949    0.08709    1.000
    N4685    N        0.76663    0.62764    0.01094    1.000
    Si4686   Si       0.76899    0.63383    0.05411    1.000
    Si4687   Si       0.79544    0.70653    0.04498    1.000
    N4688    N        0.80476    0.66383    0.05393    1.000
    N4689    N        0.76021    0.70870    0.07249    1.000
    N4690    N        0.79662    0.71383    0.00280    1.000
    Si4691   Si       0.76978    0.71664    0.11571    1.000
    Si4692   Si       0.76873    0.53874    0.23411    1.000
    N4693    N        0.77441    0.54109    0.19164    1.000
    N4694    N        0.76561    0.57682    0.14036    1.000
    Si4695   Si       0.77832    0.61341    0.21021    1.000
    Si4696   Si       0.80490    0.56137    0.16430    1.000
    N4697    N        0.79393    0.69004    0.14239    1.000
    N4698    N        0.79138    0.65825    0.21261    1.000
    Si4699   Si       0.77251    0.75446    0.21540    1.000
    N4700    N        0.80161    0.72598    0.20175    1.000
    Si4701   Si       0.78391    0.69001    0.18470    1.000
    Si4702   Si       0.80974    0.64751    0.24867    1.000
    Si4703   Si       0.78947    0.58463    0.28508    1.000
    N4704    N        0.76351    0.52162    0.36387    1.000
    N4705    N        0.80015    0.54905    0.26203    1.000
    N4706    N        0.78344    0.61292    0.25447    1.000
    Si4707   Si       0.80485    0.50986    0.35441    1.000
    N4708    N        0.75577    0.57215    0.30780    1.000
    N4709    N        0.78135    0.66614    0.34686    1.000
    N4710    N        0.79376    0.73605    0.27965    1.000
    Si4711   Si       0.75268    0.72832    0.28209    1.000
    N4712    N        0.77126    0.58750    0.37872    1.000
    N4713    N        0.78814    0.54128    0.43794    1.000
    Si4714   Si       0.79807    0.57021    0.47022    1.000
    Si4715   Si       0.80022    0.56877    0.40574    1.000
    Si4716   Si       0.76042    0.50639    0.43968    1.000
    N4717    N        0.81237    0.59767    0.43503    1.000
    N4718    N        0.78451    0.65561    0.47069    1.000
    Si4719   Si       0.81444    0.73953    0.42518    1.000
    N4720    N        0.76154    0.65022    0.41221    1.000
    Si4721   Si       0.77363    0.72946    0.48490    1.000
    Si4722   Si       0.78723    0.67722    0.38703    1.000
    N4723    N        0.78449    0.71787    0.39970    1.000
    Si4724   Si       0.79930    0.63745    0.43394    1.000
    N4725    N        0.81381    0.72851    0.46969    1.000
    N4726    N        0.77000    0.55811    0.53856    1.000
    N4727    N        0.77385    0.60666    0.60042    1.000
    N4728    N        0.78697    0.52573    0.61443    1.000
    N4729    N        0.78400    0.63111    0.53641    1.000
    Si4730   Si       0.81258    0.55046    0.54299    1.000
    N4731    N        0.81542    0.50797    0.55055    1.000
    Si4732   Si       0.78702    0.64128    0.57955    1.000
    N4733    N        0.77059    0.68046    0.58738    1.000
    Si4734   Si       0.78418    0.71385    0.56438    1.000
    Si4735   Si       0.79535    0.66477    0.51254    1.000
    N4736    N        0.77987    0.70400    0.52145    1.000
    Si4737   Si       0.78035    0.61603    0.64268    1.000
    N4738    N        0.77724    0.56719    0.71168    1.000
    N4739    N        0.80870    0.58457    0.65400    1.000
    Si4740   Si       0.78054    0.59569    0.74463    1.000
    Si4741   Si       0.77395    0.75063    0.67267    1.000
    N4742    N        0.75958    0.72955    0.63540    1.000
    N4743    N        0.78802    0.65743    0.64769    1.000
    N4744    N        0.77317    0.63691    0.73156    1.000
    Si4745   Si       0.80493    0.72286    0.72223    1.000
    N4746    N        0.80894    0.71290    0.67866    1.000
    Si4747   Si       0.75852    0.68656    0.62956    1.000
    N4748    N        0.76786    0.74400    0.71700    1.000
    N4749    N        0.76814    0.54054    0.84332    1.000
    Si4750   Si       0.76809    0.55218    0.80184    1.000
    Si4751   Si       0.78459    0.61971    0.86041    1.000
    N4752    N        0.76093    0.59098    0.78204    1.000
    N4753    N        0.81070    0.54581    0.79106    1.000
    N4754    N        0.77855    0.71073    0.84622    1.000
    N4755    N        0.75994    0.73075    0.78225    1.000
    Si4756   Si       0.76193    0.67589    0.75152    1.000
    Si4757   Si       0.75796    0.74464    0.86442    1.000
    Si4758   Si       0.81289    0.69062    0.86259    1.000
    N4759    N        0.80471    0.68791    0.74672    1.000
    Si4760   Si       0.75714    0.60507    0.92210    1.000
    N4761    N        0.75778    0.57493    0.95561    1.000
    N4762    N        0.78368    0.58945    0.89327    1.000
    Si4763   Si       0.79629    0.55011    0.87750    1.000
    Si4764   Si       0.78447    0.59328    0.98629    1.000
    N4765    N        0.80850    0.53053    0.91459    1.000
    Si4766   Si       0.79669    0.66683    0.92702    1.000
    Si4767   Si       0.75899    0.73383    0.93073    1.000
    N4768    N        0.76488    0.64398    0.94477    1.000
    N4769    N        0.79162    0.71026    0.91755    1.000
    N4770    N        0.79832    0.65389    0.88330    1.000
    Si4771   Si       0.77691    0.75222    0.99929    1.000
    N4772    N        0.79152    0.80860    0.07221    1.000
    Si4773   Si       0.78276    0.83920    0.10411    1.000
    N4774    N        0.77862    0.85759    0.01858    1.000
    Si4775   Si       0.77133    0.81721    0.03498    1.000
    N4776    N        0.79545    0.79138    0.00836    1.000
    N4777    N        0.76443    0.87560    0.09231    1.000
    Si4778   Si       0.81214    0.77193    0.08408    1.000
    N4779    N        0.78508    0.75590    0.11569    1.000
    N4780    N        0.80539    0.99147    0.11236    1.000
    Si4781   Si       0.76976    0.98590    0.08848    1.000
    Si4782   Si       0.78942    0.91197    0.07780    1.000
    N4783    N        0.76107    0.94514    0.07771    1.000
    N4784    N        0.77644    0.00775    0.05054    1.000
    N4785    N        0.75471    0.81751    0.12916    1.000
    N4786    N        0.76622    0.84345    0.20742    1.000
    Si4787   Si       0.77517    0.78256    0.14730    1.000
    N4788    N        0.79735    0.78550    0.23328    1.000
    Si4789   Si       0.80349    0.81803    0.20475    1.000
    N4790    N        0.75372    0.78036    0.18360    1.000
    Si4791   Si       0.80065    0.94675    0.19349    1.000
    Si4792   Si       0.75409    0.88635    0.21386    1.000
    N4793    N        0.79288    0.90661    0.21057    1.000
    N4794    N        0.76457    0.96853    0.18915    1.000
    Si4795   Si       0.77846    0.99851    0.22114    1.000
    N4796    N        0.79456    0.79749    0.30922    1.000
    N4797    N        0.79079    0.83309    0.36305    1.000
    Si4798   Si       0.76195    0.85809    0.33983    1.000
    N4799    N        0.75908    0.77309    0.36229    1.000
    N4800    N        0.78793    0.88060    0.31412    1.000
    Si4801   Si       0.76751    0.97195    0.29182    1.000
    Si4802   Si       0.78571    0.90340    0.27726    1.000
    N4803    N        0.79730    0.94513    0.27967    1.000
    N4804    N        0.78616    0.99831    0.32135    1.000
    N4805    N        0.75604    0.99533    0.25793    1.000
    Si4806   Si       0.78043    0.79968    0.39006    1.000
    Si4807   Si       0.76703    0.84833    0.43581    1.000
    N4808    N        0.76245    0.83309    0.47464    1.000
    N4809    N        0.80499    0.78163    0.42123    1.000
    N4810    N        0.80881    0.85154    0.43251    1.000
    N4811    N        0.81082    0.91217    0.38909    1.000
    N4812    N        0.75757    0.94668    0.37924    1.000
    Si4813   Si       0.76818    0.98230    0.40331    1.000
    Si4814   Si       0.75656    0.97178    0.48409    1.000
    N4815    N        0.81027    0.98356    0.40908    1.000
    Si4816   Si       0.76861    0.90626    0.38867    1.000
    N4817    N        0.79050    0.99885    0.49036    1.000
    N4818    N        0.77988    0.82263    0.54106    1.000
    N4819    N        0.77056    0.86352    0.58561    1.000
    N4820    N        0.76702    0.80022    0.60612    1.000
    Si4821   Si       0.80177    0.81052    0.57667    1.000
    Si4822   Si       0.79433    0.83661    0.50329    1.000
    Si4823   Si       0.78941    0.90049    0.59011    1.000
    Si4824   Si       0.76698    0.97187    0.58229    1.000
    N4825    N        0.80297    0.98263    0.55938    1.000
    N4826    N        0.76293    0.93026    0.57155    1.000
    Si4827   Si       0.81081    0.97123    0.51934    1.000
    N4828    N        0.78072    0.93860    0.50181    1.000
    N4829    N        0.79608    0.83871    0.66615    1.000
    Si4830   Si       0.77269    0.87217    0.73430    1.000
    N4831    N        0.81186    0.77294    0.66048    1.000
    Si4832   Si       0.75677    0.82598    0.67947    1.000
    Si4833   Si       0.81140    0.87943    0.66784    1.000
    N4834    N        0.75329    0.83509    0.72226    1.000
    Si4835   Si       0.81076    0.00668    0.68426    1.000
    N4836    N        0.78033    0.96955    0.62352    1.000
    N4837    N        0.80782    0.96423    0.68358    1.000
    N4838    N        0.79823    0.90483    0.63313    1.000
    Si4839   Si       0.77677    0.93959    0.70723    1.000
    Si4840   Si       0.75429    0.98221    0.65461    1.000
    N4841    N        0.78975    0.89741    0.70190    1.000
    Si4842   Si       0.81056    0.94531    0.64415    1.000
    Si4843   Si       0.78155    0.86983    0.80727    1.000
    N4844    N        0.80151    0.87167    0.76680    1.000
    Si4845   Si       0.76392    0.77189    0.79718    1.000
    Si4846   Si       0.80055    0.80345    0.85656    1.000
    N4847    N        0.80469    0.78421    0.81530    1.000
    N4848    N        0.76670    0.83034    0.86555    1.000
    Si4849   Si       0.79458    0.98130    0.77032    1.000
    Si4850   Si       0.80711    0.97263    0.85288    1.000
    N4851    N        0.80121    0.97259    0.81051    1.000
    N4852    N        0.75874    0.90460    0.81607    1.000
    N4853    N        0.78928    0.93546    0.86840    1.000
    N4854    N        0.78362    0.00675    0.86414    1.000
    N4855    N        0.77522    0.94672    0.74982    1.000
    N4856    N        0.79527    0.76681    0.88233    1.000
    N4857    N        0.76333    0.83488    0.95589    1.000
    Si4858   Si       0.77588    0.87695    0.95697    1.000
    Si4859   Si       0.78861    0.80258    0.96373    1.000
    N4860    N        0.77600    0.76163    0.95652    1.000
    N4861    N        0.75317    0.90506    0.98003    1.000
    N4862    N        0.77168    0.88700    0.91451    1.000
    Si4863   Si       0.80464    0.91315    0.90014    1.000
    Si4864   Si       0.79751    0.00765    0.97605    1.000
    N4865    N        0.78797    0.96478    0.98408    1.000
    N4866    N        0.84519    0.11164    0.09799    1.000
    Si4867   Si       0.84023    0.08508    0.06153    1.000
    N4868    N        0.82944    0.04486    0.07586    1.000
    N4869    N        0.86814    0.08240    0.02805    1.000
    N4870    N        0.82504    0.02683    0.00483    1.000
    Si4871   Si       0.81824    0.01373    0.04675    1.000
    Si4872   Si       0.81963    0.03296    0.11606    1.000
    Si4873   Si       0.85518    0.05317    0.99427    1.000
    N4874    N        0.86601    0.15946    0.04712    1.000
    N4875    N        0.83697    0.22530    0.06202    1.000
    Si4876   Si       0.83212    0.18555    0.04605    1.000
    N4877    N        0.82644    0.18965    0.00273    1.000
    Si4878   Si       0.86173    0.25663    0.04432    1.000
    N4879    N        0.84673    0.25396    0.00421    1.000
    N4880    N        0.84945    0.04054    0.14712    1.000
    N4881    N        0.85319    0.04294    0.21744    1.000
    Si4882   Si       0.82626    0.05509    0.18395    1.000
    N4883    N        0.81867    0.09800    0.17783    1.000
    Si4884   Si       0.84519    0.13160    0.19265    1.000
    N4885    N        0.85631    0.16632    0.16819    1.000
    N4886    N        0.85118    0.23127    0.21121    1.000
    Si4887   Si       0.83080    0.19425    0.19290    1.000
    N4888    N        0.82687    0.16029    0.22212    1.000
    N4889    N        0.84765    0.08407    0.27218    1.000
    N4890    N        0.83513    0.05002    0.32840    1.000
    Si4891   Si       0.83207    0.04658    0.25454    1.000
    Si4892   Si       0.81837    0.08221    0.30581    1.000
    Si4893   Si       0.86569    0.05621    0.35942    1.000
    Si4894   Si       0.83096    0.15284    0.33897    1.000
    N4895    N        0.83844    0.21540    0.27992    1.000
    Si4896   Si       0.84400    0.22537    0.32177    1.000
    N4897    N        0.86595    0.15336    0.31243    1.000
    Si4898   Si       0.86660    0.22143    0.24869    1.000
    Si4899   Si       0.81594    0.09680    0.40217    1.000
    N4900    N        0.85504    0.09032    0.38094    1.000
    Si4901   Si       0.82867    0.02335    0.41291    1.000
    N4902    N        0.84067    0.10177    0.43921    1.000
    N4903    N        0.86167    0.02274    0.38644    1.000
    Si4904   Si       0.83039    0.10587    0.48014    1.000
    N4905    N        0.84890    0.02473    0.45175    1.000
    Si4906   Si       0.82218    0.02783    0.48780    1.000
    N4907    N        0.83104    0.25365    0.38130    1.000
    Si4908   Si       0.82388    0.17799    0.49553    1.000
    N4909    N        0.84435    0.15596    0.38068    1.000
    N4910    N        0.85610    0.25014    0.47098    1.000
    N4911    N        0.86265    0.18192    0.47718    1.000
    N4912    N        0.82855    0.09914    0.55648    1.000
    N4913    N        0.85329    0.02243    0.58956    1.000
    Si4914   Si       0.82156    0.02054    0.55981    1.000
    N4915    N        0.86698    0.12046    0.49940    1.000
    N4916    N        0.84265    0.01248    0.52269    1.000
    Si4917   Si       0.85438    0.13106    0.54130    1.000
    N4918    N        0.83208    0.16946    0.53610    1.000
    N4919    N        0.82095    0.15181    0.59925    1.000
    Si4920   Si       0.83790    0.22946    0.61208    1.000
    Si4921   Si       0.85508    0.04821    0.62366    1.000
    N4922    N        0.82757    0.08209    0.62431    1.000
    Si4923   Si       0.85693    0.04871    0.69205    1.000
    N4924    N        0.85639    0.09104    0.68223    1.000
    N4925    N        0.84301    0.02391    0.65822    1.000
    N4926    N        0.82552    0.03133    0.71820    1.000
    Si4927   Si       0.81814    0.09881    0.66430    1.000
    Si4928   Si       0.86469    0.01678    0.74507    1.000
    Si4929   Si       0.84430    0.15936    0.63746    1.000
    N4930    N        0.85468    0.23705    0.70765    1.000
    N4931    N        0.85928    0.20031    0.63473    1.000
    Si4932   Si       0.82165    0.21486    0.72966    1.000
    N4933    N        0.85801    0.04567    0.77860    1.000
    N4934    N        0.83352    0.11564    0.78387    1.000
    Si4935   Si       0.82173    0.07077    0.78082    1.000
    Si4936   Si       0.86779    0.12257    0.80802    1.000
    N4937    N        0.85076    0.20411    0.80874    1.000
    Si4938   Si       0.85642    0.18766    0.84818    1.000
    N4939    N        0.85947    0.14464    0.84603    1.000
    N4940    N        0.84016    0.18148    0.74857    1.000
    Si4941   Si       0.87085    0.04990    0.88512    1.000
    N4942    N        0.82770    0.05391    0.88924    1.000
    Si4943   Si       0.83524    0.11769    0.95580    1.000
    N4944    N        0.84638    0.07463    0.95870    1.000
    Si4945   Si       0.82299    0.04977    0.93148    1.000
    N4946    N        0.82852    0.12561    0.91471    1.000
    Si4947   Si       0.85967    0.12885    0.88583    1.000
    N4948    N        0.82389    0.22663    0.94615    1.000
    N4949    N        0.83747    0.20669    0.88176    1.000
    N4950    N        0.86689    0.13868    0.97497    1.000
    Si4951   Si       0.85267    0.21787    0.98031    1.000
    Si4952   Si       0.85534    0.22748    0.91578    1.000
    Si4953   Si       0.82854    0.30489    0.10109    1.000
    N4954    N        0.84822    0.29328    0.06350    1.000
    Si4955   Si       0.85344    0.32851    0.03782    1.000
    N4956    N        0.85374    0.37192    0.04452    1.000
    Si4957   Si       0.83208    0.37950    0.08146    1.000
    N4958    N        0.82675    0.31994    0.00262    1.000
    N4959    N        0.85462    0.38558    0.11805    1.000
    N4960    N        0.82143    0.50310    0.02978    1.000
    N4961    N        0.84781    0.44000    0.01198    1.000
    Si4962   Si       0.83865    0.39663    0.01029    1.000
    Si4963   Si       0.83145    0.44443    0.10319    1.000
    Si4964   Si       0.81459    0.37370    0.21814    1.000
    Si4965   Si       0.83686    0.27314    0.21249    1.000
    N4966    N        0.84804    0.31707    0.13843    1.000
    N4967    N        0.84837    0.37595    0.18488    1.000
    Si4968   Si       0.83361    0.35856    0.14575    1.000
    N4969    N        0.86802    0.30404    0.20467    1.000
    Si4970   Si       0.83819    0.42365    0.18496    1.000
    Si4971   Si       0.85610    0.48211    0.22473    1.000
    N4972    N        0.82839    0.44391    0.14808    1.000
    N4973    N        0.81713    0.47579    0.20451    1.000
    N4974    N        0.87075    0.44492    0.20609    1.000
    Si4975   Si       0.85108    0.28633    0.28059    1.000
    N4976    N        0.83757    0.26928    0.31694    1.000
    Si4977   Si       0.82901    0.28863    0.35415    1.000
    Si4978   Si       0.86063    0.36907    0.28314    1.000
    N4979    N        0.85521    0.32206    0.36080    1.000
    N4980    N        0.82195    0.37424    0.26138    1.000
    N4981    N        0.81839    0.28523    0.25027    1.000
    N4982    N        0.85629    0.37718    0.32531    1.000
    N4983    N        0.86878    0.32755    0.27232    1.000
    Si4984   Si       0.83592    0.41474    0.34449    1.000
    Si4985   Si       0.82748    0.46478    0.29603    1.000
    N4986    N        0.84354    0.49192    0.26584    1.000
    N4987    N        0.85535    0.44259    0.31860    1.000
    Si4988   Si       0.84504    0.34302    0.39763    1.000
    Si4989   Si       0.86551    0.34744    0.46604    1.000
    N4990    N        0.86542    0.31923    0.42951    1.000
    N4991    N        0.84285    0.37912    0.44572    1.000
    N4992    N        0.87277    0.37528    0.38862    1.000
    Si4993   Si       0.81700    0.46142    0.41095    1.000
    N4994    N        0.85828    0.49550    0.49323    1.000
    N4995    N        0.83527    0.42921    0.38488    1.000
    Si4996   Si       0.86253    0.40858    0.41496    1.000
    N4997    N        0.82767    0.49914    0.38979    1.000
    N4998    N        0.84004    0.44441    0.44618    1.000
    N4999    N        0.83568    0.28679    0.55175    1.000
    Si5000   Si       0.82311    0.30930    0.51630    1.000
    N5001    N        0.82613    0.32459    0.61462    1.000
    N5002    N        0.85830    0.31601    0.49550    1.000
    Si5003   Si       0.86540    0.43574    0.60387    1.000
    Si5004   Si       0.84435    0.40915    0.54252    1.000
    Si5005   Si       0.82451    0.48184    0.52016    1.000
    N5006    N        0.83270    0.41027    0.58285    1.000
    N5007    N        0.85030    0.45178    0.53833    1.000
    N5008    N        0.84026    0.47052    0.61245    1.000
    N5009    N        0.81566    0.39921    0.51121    1.000
    N5010    N        0.82983    0.26205    0.63983    1.000
    Si5011   Si       0.86167    0.32838    0.69653    1.000
    N5012    N        0.84802    0.36791    0.68670    1.000
    N5013    N        0.82765    0.30166    0.70068    1.000
    Si5014   Si       0.84956    0.26974    0.67761    1.000
    Si5015   Si       0.86901    0.32368    0.62579    1.000
    Si5016   Si       0.81598    0.38379    0.71177    1.000
    N5017    N        0.82679    0.48129    0.68094    1.000
    Si5018   Si       0.82777    0.45185    0.65001    1.000
    Si5019   Si       0.82027    0.46202    0.72065    1.000
    N5020    N        0.86391    0.42542    0.64810    1.000
    N5021    N        0.85522    0.44902    0.74654    1.000
    N5022    N        0.82948    0.30268    0.84809    1.000
    Si5023   Si       0.81934    0.32623    0.81133    1.000
    N5024    N        0.85899    0.33079    0.79401    1.000
    Si5025   Si       0.86850    0.29235    0.86615    1.000
    N5026    N        0.84290    0.38265    0.74857    1.000
    N5027    N        0.87122    0.26741    0.76610    1.000
    Si5028   Si       0.82677    0.39368    0.83823    1.000
    Si5029   Si       0.83819    0.41727    0.77122    1.000
    N5030    N        0.83596    0.48203    0.80890    1.000
    N5031    N        0.85704    0.40452    0.80819    1.000
    N5032    N        0.87013    0.26704    0.90270    1.000
    Si5033   Si       0.83945    0.34022    0.96601    1.000
    N5034    N        0.85251    0.38071    0.97371    1.000
    N5035    N        0.83121    0.37498    0.87701    1.000
    Si5036   Si       0.82314    0.49504    0.93842    1.000
    N5037    N        0.83597    0.46095    0.91379    1.000
    N5038    N        0.84375    0.60648    0.06468    1.000
    N5039    N        0.85508    0.56020    0.01980    1.000
    Si5040   Si       0.83239    0.52061    0.10997    1.000
    Si5041   Si       0.81949    0.54651    0.03589    1.000
    Si5042   Si       0.81787    0.58680    0.09108    1.000
    Si5043   Si       0.86854    0.59939    0.02948    1.000
    N5044    N        0.86249    0.63476    0.00676    1.000
    N5045    N        0.81520    0.54602    0.07792    1.000
    Si5046   Si       0.84083    0.64850    0.07373    1.000
    N5047    N        0.85997    0.70377    0.01065    1.000
    Si5048   Si       0.86057    0.74039    0.03396    1.000
    N5049    N        0.82294    0.73681    0.05863    1.000
    N5050    N        0.84210    0.64798    0.11706    1.000
    N5051    N        0.86657    0.71408    0.12177    1.000
    N5052    N        0.83473    0.57961    0.13056    1.000
    Si5053   Si       0.85200    0.60989    0.20213    1.000
    Si5054   Si       0.86335    0.61278    0.13048    1.000
    N5055    N        0.81608    0.52034    0.15161    1.000
    N5056    N        0.81260    0.59526    0.19166    1.000
    N5057    N        0.84888    0.63691    0.23422    1.000
    Si5058   Si       0.84649    0.71894    0.20613    1.000
    Si5059   Si       0.83764    0.68429    0.13986    1.000
    N5060    N        0.85238    0.70357    0.24693    1.000
    N5061    N        0.85406    0.68621    0.17836    1.000
    Si5062   Si       0.83929    0.57474    0.33765    1.000
    Si5063   Si       0.83444    0.53161    0.28186    1.000
    N5064    N        0.82432    0.53635    0.32435    1.000
    N5065    N        0.81521    0.60440    0.31505    1.000
    N5066    N        0.86944    0.55484    0.27579    1.000
    N5067    N        0.84990    0.65496    0.34618    1.000
    N5068    N        0.84731    0.71699    0.31723    1.000
    Si5069   Si       0.82476    0.70778    0.28170    1.000
    Si5070   Si       0.81336    0.64564    0.32271    1.000
    N5071    N        0.81063    0.66664    0.28540    1.000
    Si5072   Si       0.86053    0.75759    0.32397    1.000
    Si5073   Si       0.85727    0.59410    0.43416    1.000
    N5074    N        0.85874    0.55116    0.43898    1.000
    Si5075   Si       0.85582    0.53085    0.39973    1.000
    N5076    N        0.83610    0.56601    0.38141    1.000
    N5077    N        0.86916    0.61229    0.47078    1.000
    N5078    N        0.82312    0.66451    0.40688    1.000
    N5079    N        0.86885    0.68404    0.45860    1.000
    N5080    N        0.85541    0.73627    0.40753    1.000
    Si5081   Si       0.86016    0.65407    0.38793    1.000
    Si5082   Si       0.84597    0.70546    0.48822    1.000
    N5083    N        0.83156    0.56803    0.57816    1.000
    Si5084   Si       0.86550    0.58459    0.50377    1.000
    N5085    N        0.82569    0.56564    0.50385    1.000
    Si5086   Si       0.81811    0.55781    0.61997    1.000
    N5087    N        0.87116    0.61145    0.53846    1.000
    N5088    N        0.82848    0.64643    0.58466    1.000
    N5089    N        0.83687    0.66969    0.51254    1.000
    Si5090   Si       0.85944    0.74368    0.55589    1.000
    N5091    N        0.82604    0.72192    0.57322    1.000
    Si5092   Si       0.86518    0.65388    0.60375    1.000
    N5093    N        0.86725    0.72976    0.51591    1.000
    Si5094   Si       0.87178    0.65453    0.53677    1.000
    N5095    N        0.85244    0.53489    0.63610    1.000
    N5096    N        0.82410    0.59932    0.73547    1.000
    N5097    N        0.84427    0.54570    0.70155    1.000
    Si5098   Si       0.81640    0.57773    0.69695    1.000
    Si5099   Si       0.85118    0.51493    0.67187    1.000
    N5100    N        0.83890    0.65170    0.69794    1.000
    Si5101   Si       0.82418    0.67517    0.66573    1.000
    Si5102   Si       0.81710    0.64724    0.73580    1.000
    Si5103   Si       0.83978    0.74483    0.67961    1.000
    N5104    N        0.86184    0.67518    0.64136    1.000
    N5105    N        0.83993    0.74925    0.72141    1.000
    N5106    N        0.83493    0.55715    0.85693    1.000
    Si5107   Si       0.83070    0.57339    0.81782    1.000
    Si5108   Si       0.86030    0.60905    0.76069    1.000
    N5109    N        0.86601    0.59071    0.79730    1.000
    N5110    N        0.81304    0.61168    0.82941    1.000
    N5111    N        0.86947    0.51297    0.75775    1.000
    Si5112   Si       0.82928    0.51117    0.77482    1.000
    Si5113   Si       0.84728    0.63752    0.81719    1.000
    N5114    N        0.84482    0.64755    0.77226    1.000
    N5115    N        0.84412    0.72905    0.78509    1.000
    N5116    N        0.83100    0.67759    0.82561    1.000
    Si5117   Si       0.82879    0.68865    0.78383    1.000
    Si5118   Si       0.86760    0.74873    0.75343    1.000
    N5119    N        0.87036    0.56284    0.91748    1.000
    N5120    N        0.84914    0.52078    0.96212    1.000
    N5121    N        0.82399    0.59326    0.96470    1.000
    Si5122   Si       0.83379    0.55884    0.94033    1.000
    Si5123   Si       0.85152    0.63032    0.96660    1.000
    Si5124   Si       0.83138    0.70519    0.97559    1.000
    N5125    N        0.83049    0.66561    0.95396    1.000
    N5126    N        0.84604    0.73470    0.94756    1.000
    Si5127   Si       0.82412    0.74156    0.90659    1.000
    N5128    N        0.84425    0.71626    0.87888    1.000
    N5129    N        0.84947    0.84452    0.02641    1.000
    N5130    N        0.84923    0.78647    0.10386    1.000
    Si5131   Si       0.83870    0.80840    0.00373    1.000
    N5132    N        0.86714    0.77803    0.01302    1.000
    Si5133   Si       0.81777    0.87450    0.01470    1.000
    Si5134   Si       0.84342    0.87857    0.12073    1.000
    N5135    N        0.81482    0.90999    0.03828    1.000
    N5136    N        0.83733    0.97668    0.05054    1.000
    Si5137   Si       0.84725    0.93845    0.03128    1.000
    N5138    N        0.82387    0.91594    0.10347    1.000
    N5139    N        0.81815    0.84571    0.12761    1.000
    Si5140   Si       0.84353    0.81049    0.14032    1.000
    N5141    N        0.83587    0.84503    0.20993    1.000
    N5142    N        0.81260    0.79506    0.16675    1.000
    Si5143   Si       0.82946    0.95612    0.12049    1.000
    Si5144   Si       0.82653    0.88306    0.22537    1.000
    N5145    N        0.81596    0.97677    0.22393    1.000
    Si5146   Si       0.86639    0.92310    0.17645    1.000
    N5147    N        0.82989    0.94360    0.16355    1.000
    N5148    N        0.86252    0.90214    0.21460    1.000
    Si5149   Si       0.82391    0.81493    0.33807    1.000
    N5150    N        0.85171    0.84315    0.32521    1.000
    N5151    N        0.84751    0.78386    0.35658    1.000
    N5152    N        0.85141    0.77538    0.28455    1.000
    Si5153   Si       0.83208    0.87803    0.30914    1.000
    N5154    N        0.82613    0.88282    0.26771    1.000
    Si5155   Si       0.80940    0.77643    0.27346    1.000
    Si5156   Si       0.83169    0.96594    0.26214    1.000
    N5157    N        0.86157    0.97972    0.33533    1.000
    N5158    N        0.85225    0.90861    0.32990    1.000
    N5159    N        0.86853    0.94535    0.27036    1.000
    N5160    N        0.83840    0.00939    0.27703    1.000
    Si5161   Si       0.83102    0.00624    0.31891    1.000
    N5162    N        0.86369    0.81271    0.42317    1.000
    Si5163   Si       0.82428    0.81344    0.44512    1.000
    N5164    N        0.82795    0.81246    0.48722    1.000
    Si5165   Si       0.86700    0.77672    0.39598    1.000
    Si5166   Si       0.82876    0.88594    0.41881    1.000
    Si5167   Si       0.82979    0.94581    0.41023    1.000
    N5168    N        0.82630    0.92036    0.44650    1.000
    Si5169   Si       0.81507    0.91658    0.48801    1.000
    N5170    N        0.83742    0.78321    0.55400    1.000
    N5171    N        0.83260    0.82457    0.60421    1.000
    N5172    N        0.85497    0.84436    0.54142    1.000
    Si5173   Si       0.85555    0.80637    0.52104    1.000
    Si5174   Si       0.86771    0.84184    0.58298    1.000
    N5175    N        0.81199    0.87769    0.50665    1.000
    Si5176   Si       0.84575    0.88497    0.53336    1.000
    Si5177   Si       0.86234    0.91755    0.59748    1.000
    N5178    N        0.82916    0.90007    0.57125    1.000
    N5179    N        0.83961    0.93954    0.51554    1.000
    Si5180   Si       0.82645    0.81143    0.64702    1.000
    N5181    N        0.86718    0.81301    0.66575    1.000
    N5182    N        0.85610    0.88168    0.66891    1.000
    N5183    N        0.85362    0.93955    0.63531    1.000
    Si5184   Si       0.84781    0.86715    0.85732    1.000
    Si5185   Si       0.84354    0.77077    0.80461    1.000
    N5186    N        0.84037    0.82377    0.86057    1.000
    N5187    N        0.86411    0.78895    0.76919    1.000
    N5188    N        0.82325    0.88235    0.82483    1.000
    Si5189   Si       0.83863    0.88465    0.78241    1.000
    N5190    N        0.87064    0.76582    0.83798    1.000
    N5191    N        0.85876    0.91624    0.76248    1.000
    N5192    N        0.83641    0.98317    0.75865    1.000
    Si5193   Si       0.86576    0.95725    0.77337    1.000
    N5194    N        0.83138    0.81414    0.96162    1.000
    Si5195   Si       0.86257    0.80495    0.93560    1.000
    N5196    N        0.85925    0.77605    0.90419    1.000
    Si5197   Si       0.85206    0.87779    0.93804    1.000
    N5198    N        0.83632    0.88561    0.89605    1.000
    Si5199   Si       0.84422    0.97473    0.91999    1.000
    N5200    N        0.84409    0.97495    0.87637    1.000
    N5201    N        0.85520    0.94004    0.99047    1.000
    Si5202   Si       0.81757    0.93213    0.97210    1.000
    N5203    N        0.82020    0.93994    0.93076    1.000
    N5204    N        0.81909    0.88720    0.96915    1.000
    N5205    N        0.82495    0.00699    0.94136    1.000
    N5206    N        0.91084    0.10701    0.07854    1.000
    Si5207   Si       0.90766    0.09625    0.03378    1.000
    N5208    N        0.91406    0.04267    0.10687    1.000
    Si5209   Si       0.88568    0.11742    0.11305    1.000
    Si5210   Si       0.92123    0.02242    0.02289    1.000
    N5211    N        0.91834    0.13726    0.02149    1.000
    Si5212   Si       0.88118    0.16211    0.00746    1.000
    Si5213   Si       0.90490    0.15215    0.06643    1.000
    N5214    N        0.89837    0.15989    0.11152    1.000
    Si5215   Si       0.92289    0.22020    0.03462    1.000
    N5216    N        0.89146    0.20550    0.01021    1.000
    N5217    N        0.92636    0.18904    0.06292    1.000
    N5218    N        0.90370    0.25742    0.05017    1.000
    Si5219   Si       0.89642    0.03088    0.21653    1.000
    Si5220   Si       0.89168    0.05389    0.14234    1.000
    Si5221   Si       0.91370    0.10937    0.18689    1.000
    N5222    N        0.89551    0.09664    0.14879    1.000
    N5223    N        0.90995    0.03864    0.17803    1.000
    N5224    N        0.87733    0.10951    0.21198    1.000
    N5225    N        0.91710    0.21024    0.14595    1.000
    Si5226   Si       0.89583    0.17310    0.15228    1.000
    N5227    N        0.92414    0.15261    0.17701    1.000
    N5228    N        0.90708    0.06145    0.34275    1.000
    N5229    N        0.91477    0.12143    0.27329    1.000
    Si5230   Si       0.88366    0.09464    0.25440    1.000
    N5231    N        0.90949    0.06025    0.24825    1.000
    N5232    N        0.92434    0.18609    0.30521    1.000
    Si5233   Si       0.89644    0.15891    0.28322    1.000
    Si5234   Si       0.91429    0.20014    0.34520    1.000
    N5235    N        0.87837    0.22343    0.34707    1.000
    N5236    N        0.89230    0.18655    0.24930    1.000
    N5237    N        0.90113    0.06739    0.42547    1.000
    Si5238   Si       0.89160    0.03105    0.44571    1.000
    N5239    N        0.90465    0.04019    0.48839    1.000
    Si5240   Si       0.87754    0.10225    0.41649    1.000
    Si5241   Si       0.88048    0.16778    0.40182    1.000
    N5242    N        0.91469    0.16874    0.37547    1.000
    N5243    N        0.87621    0.20943    0.41480    1.000
    N5244    N        0.92550    0.22132    0.46532    1.000
    N5245    N        0.89475    0.14085    0.43120    1.000
    N5246    N        0.92516    0.15404    0.49188    1.000
    Si5247   Si       0.88149    0.21728    0.45787    1.000
    Si5248   Si       0.88868    0.14752    0.47253    1.000
    Si5249   Si       0.87162    0.24101    0.38626    1.000
    Si5250   Si       0.88581    0.01027    0.51399    1.000
    Si5251   Si       0.92212    0.13063    0.53004    1.000
    N5252    N        0.90762    0.00699    0.55208    1.000
    N5253    N        0.89185    0.13605    0.56038    1.000
    Si5254   Si       0.90610    0.14094    0.59969    1.000
    N5255    N        0.91772    0.18242    0.60237    1.000
    N5256    N        0.87562    0.23845    0.59112    1.000
    Si5257   Si       0.92957    0.03283    0.62276    1.000
    Si5258   Si       0.92697    0.06483    0.71694    1.000
    Si5259   Si       0.89168    0.09830    0.65684    1.000
    N5260    N        0.89180    0.03825    0.71474    1.000
    N5261    N        0.92318    0.09786    0.68749    1.000
    N5262    N        0.89524    0.06088    0.63408    1.000
    Si5263   Si       0.89780    0.21585    0.62141    1.000
    Si5264   Si       0.88742    0.24310    0.73424    1.000
    N5265    N        0.87973    0.13418    0.63440    1.000
    N5266    N        0.92185    0.24714    0.64095    1.000
    Si5267   Si       0.91461    0.09561    0.85717    1.000
    N5268    N        0.89168    0.08910    0.81813    1.000
    Si5269   Si       0.88835    0.04808    0.80994    1.000
    N5270    N        0.92431    0.02650    0.80303    1.000
    N5271    N        0.87635    0.02828    0.84867    1.000
    N5272    N        0.92920    0.09070    0.75056    1.000
    Si5273   Si       0.87514    0.18720    0.77498    1.000
    N5274    N        0.89434    0.14935    0.78386    1.000
    N5275    N        0.89716    0.20075    0.85383    1.000
    Si5276   Si       0.91182    0.23836    0.83770    1.000
    N5277    N        0.90550    0.20952    0.75322    1.000
    N5278    N        0.89627    0.03628    0.98946    1.000
    N5279    N        0.88240    0.09096    0.88528    1.000
    Si5280   Si       0.90811    0.05641    0.95172    1.000
    N5281    N        0.91769    0.09824    0.94721    1.000
    N5282    N        0.89927    0.03257    0.91493    1.000
    Si5283   Si       0.92692    0.20583    0.94185    1.000
    Si5284   Si       0.89977    0.13783    0.94527    1.000
    N5285    N        0.92868    0.16623    0.96170    1.000
    N5286    N        0.88751    0.15471    0.90724    1.000
    N5287    N        0.88480    0.21672    0.94700    1.000
    Si5288   Si       0.91276    0.17262    0.87999    1.000
    N5289    N        0.89442    0.32059    0.02463    1.000
    Si5290   Si       0.91847    0.29920    0.05571    1.000
    N5291    N        0.92274    0.32498    0.08988    1.000
    Si5292   Si       0.89475    0.48290    0.10907    1.000
    Si5293   Si       0.88858    0.45092    0.00720    1.000
    N5294    N        0.91585    0.42740    0.03136    1.000
    N5295    N        0.89592    0.49386    0.00975    1.000
    N5296    N        0.92518    0.39883    0.09706    1.000
    Si5297   Si       0.88969    0.40904    0.12046    1.000
    N5298    N        0.87442    0.44569    0.10335    1.000
    Si5299   Si       0.89491    0.37481    0.18235    1.000
    N5300    N        0.91162    0.27794    0.14661    1.000
    N5301    N        0.90494    0.36233    0.22217    1.000
    N5302    N        0.90581    0.34085    0.15829    1.000
    Si5303   Si       0.89192    0.32240    0.23435    1.000
    Si5304   Si       0.88146    0.30485    0.16343    1.000
    Si5305   Si       0.93167    0.31430    0.13107    1.000
    N5306    N        0.91323    0.48380    0.15010    1.000
    Si5307   Si       0.90734    0.45174    0.18123    1.000
    N5308    N        0.90297    0.41211    0.16223    1.000
    Si5309   Si       0.88230    0.35445    0.35068    1.000
    Si5310   Si       0.92395    0.26728    0.27505    1.000
    N5311    N        0.92796    0.35446    0.35015    1.000
    N5312    N        0.92831    0.27507    0.31670    1.000
    N5313    N        0.92928    0.30230    0.24669    1.000
    N5314    N        0.88271    0.25947    0.26552    1.000
    Si5315   Si       0.92229    0.38665    0.25336    1.000
    N5316    N        0.88416    0.40248    0.27006    1.000
    Si5317   Si       0.89434    0.43570    0.29704    1.000
    N5318    N        0.91145    0.46858    0.27167    1.000
    N5319    N        0.92280    0.42289    0.32532    1.000
    Si5320   Si       0.88431    0.28207    0.48832    1.000
    N5321    N        0.90507    0.36578    0.47346    1.000
    Si5322   Si       0.90280    0.29994    0.42066    1.000
    N5323    N        0.90342    0.27193    0.38918    1.000
    N5324    N        0.91527    0.28357    0.45859    1.000
    N5325    N        0.89479    0.49628    0.44005    1.000
    N5326    N        0.89981    0.42824    0.42628    1.000
    N5327    N        0.89700    0.44216    0.48926    1.000
    Si5328   Si       0.87962    0.45811    0.45338    1.000
    N5329    N        0.92814    0.48143    0.37681    1.000
    N5330    N        0.89119    0.30290    0.59425    1.000
    N5331    N        0.89765    0.26881    0.52681    1.000
    Si5332   Si       0.92490    0.28006    0.61022    1.000
    Si5333   Si       0.87618    0.27486    0.56567    1.000
    Si5334   Si       0.93105    0.35680    0.61977    1.000
    N5335    N        0.88294    0.39287    0.53487    1.000
    N5336    N        0.90561    0.43669    0.58733    1.000
    N5337    N        0.90904    0.49314    0.54640    1.000
    Si5338   Si       0.91639    0.40473    0.56104    1.000
    Si5339   Si       0.88340    0.47147    0.51872    1.000
    Si5340   Si       0.90981    0.40238    0.49817    1.000
    Si5341   Si       0.93009    0.47424    0.57853    1.000
    N5342    N        0.93341    0.50238    0.61229    1.000
    N5343    N        0.88879    0.33329    0.73032    1.000
    N5344    N        0.91733    0.26737    0.71364    1.000
    N5345    N        0.88826    0.36075    0.63228    1.000
    Si5346   Si       0.92237    0.30311    0.73628    1.000
    Si5347   Si       0.92497    0.36286    0.72357    1.000
    N5348    N        0.87735    0.30285    0.66510    1.000
    N5349    N        0.89249    0.50646    0.68848    1.000
    N5350    N        0.92471    0.46363    0.73872    1.000
    Si5351   Si       0.87962    0.38937    0.66635    1.000
    Si5352   Si       0.92361    0.47606    0.69764    1.000
    N5353    N        0.91535    0.38741    0.68916    1.000
    Si5354   Si       0.88398    0.29611    0.79359    1.000
    N5355    N        0.88769    0.27365    0.83208    1.000
    N5356    N        0.90122    0.37623    0.84957    1.000
    N5357    N        0.92434    0.30134    0.78110    1.000
    Si5358   Si       0.87656    0.35845    0.76405    1.000
    N5359    N        0.91328    0.38276    0.76146    1.000
    Si5360   Si       0.88681    0.47452    0.75903    1.000
    N5361    N        0.90046    0.47560    0.79930    1.000
    Si5362   Si       0.89332    0.41617    0.82955    1.000
    N5363    N        0.87695    0.44418    0.85716    1.000
    Si5364   Si       0.87175    0.48129    0.83230    1.000
    Si5365   Si       0.89301    0.30005    0.92093    1.000
    N5366    N        0.91750    0.37384    0.98262    1.000
    Si5367   Si       0.90989    0.33155    0.98537    1.000
    N5368    N        0.88181    0.32651    0.89004    1.000
    N5369    N        0.87723    0.32017    0.95736    1.000
    Si5370   Si       0.87523    0.36785    0.88389    1.000
    Si5371   Si       0.92303    0.49788    0.88157    1.000
    Si5372   Si       0.89012    0.39657    0.95729    1.000
    N5373    N        0.90069    0.43648    0.96777    1.000
    Si5374   Si       0.87523    0.44244    0.90097    1.000
    N5375    N        0.88330    0.39888    0.91418    1.000
    N5376    N        0.91045    0.46798    0.90987    1.000
    N5377    N        0.91195    0.59616    0.03639    1.000
    N5378    N        0.89785    0.60044    0.10779    1.000
    Si5379   Si       0.89964    0.55588    0.11276    1.000
    N5380    N        0.87510    0.52089    0.10605    1.000
    Si5381   Si       0.88413    0.66865    0.02029    1.000
    Si5382   Si       0.88817    0.70162    0.08761    1.000
    N5383    N        0.89114    0.73882    0.06625    1.000
    N5384    N        0.92257    0.67059    0.00102    1.000
    N5385    N        0.87813    0.66775    0.06212    1.000
    N5386    N        0.92755    0.74200    0.01436    1.000
    N5387    N        0.88218    0.62452    0.16842    1.000
    N5388    N        0.90864    0.55535    0.15499    1.000
    Si5389   Si       0.88874    0.54691    0.23710    1.000
    Si5390   Si       0.90843    0.59157    0.18077    1.000
    Si5391   Si       0.91457    0.51851    0.17850    1.000
    N5392    N        0.88092    0.57998    0.21250    1.000
    N5393    N        0.88546    0.51116    0.20919    1.000
    Si5394   Si       0.89459    0.73332    0.15147    1.000
    N5395    N        0.92000    0.69824    0.16356    1.000
    Si5396   Si       0.91324    0.75547    0.21345    1.000
    N5397    N        0.91170    0.65724    0.21874    1.000
    Si5398   Si       0.89363    0.66635    0.17896    1.000
    N5399    N        0.87778    0.74515    0.19028    1.000
    Si5400   Si       0.87776    0.66818    0.24707    1.000
    Si5401   Si       0.90595    0.56561    0.29931    1.000
    N5402    N        0.88203    0.58247    0.33396    1.000
    N5403    N        0.91930    0.52516    0.31303    1.000
    Si5404   Si       0.92513    0.51929    0.35469    1.000
    N5405    N        0.93024    0.54140    0.25112    1.000
    N5406    N        0.91234    0.69773    0.34107    1.000
    N5407    N        0.88528    0.66388    0.28758    1.000
    Si5408   Si       0.87517    0.68474    0.32380    1.000
    Si5409   Si       0.89139    0.58106    0.37741    1.000
    N5410    N        0.89475    0.53742    0.38087    1.000
    N5411    N        0.87646    0.61664    0.40198    1.000
    Si5412   Si       0.87794    0.52653    0.46870    1.000
    N5413    N        0.89647    0.67667    0.39909    1.000
    Si5414   Si       0.89227    0.64824    0.46948    1.000
    N5415    N        0.93031    0.63791    0.44755    1.000
    Si5416   Si       0.92036    0.63439    0.40563    1.000
    Si5417   Si       0.88615    0.70857    0.42691    1.000
    N5418    N        0.90050    0.73923    0.45501    1.000
    N5419    N        0.90312    0.55637    0.57381    1.000
    Si5420   Si       0.91601    0.53545    0.53634    1.000
    N5421    N        0.88302    0.61418    0.60860    1.000
    N5422    N        0.89456    0.55122    0.50068    1.000
    Si5423   Si       0.87133    0.58833    0.57532    1.000
    Si5424   Si       0.93115    0.54459    0.60448    1.000
    N5425    N        0.89919    0.74621    0.57476    1.000
    Si5426   Si       0.91498    0.70505    0.58276    1.000
    N5427    N        0.88599    0.67473    0.57191    1.000
    N5428    N        0.90677    0.66188    0.51014    1.000
    Si5429   Si       0.90549    0.74953    0.49738    1.000
    N5430    N        0.91808    0.56184    0.64206    1.000
    Si5431   Si       0.91101    0.60418    0.63715    1.000
    N5432    N        0.90069    0.61570    0.67661    1.000
    N5433    N        0.91467    0.55869    0.71376    1.000
    Si5434   Si       0.88031    0.53458    0.72255    1.000
    Si5435   Si       0.92277    0.59981    0.70966    1.000
    Si5436   Si       0.92328    0.53630    0.67646    1.000
    N5437    N        0.89471    0.62197    0.73821    1.000
    Si5438   Si       0.89365    0.69976    0.65765    1.000
    N5439    N        0.92479    0.70242    0.62538    1.000
    Si5440   Si       0.88137    0.64650    0.70097    1.000
    N5441    N        0.87850    0.74130    0.66417    1.000
    Si5442   Si       0.92514    0.70228    0.73145    1.000
    N5443    N        0.90808    0.74101    0.74448    1.000
    N5444    N        0.90353    0.68414    0.69889    1.000
    Si5445   Si       0.90334    0.59820    0.82254    1.000
    N5446    N        0.90523    0.57495    0.85969    1.000
    N5447    N        0.88417    0.51052    0.86238    1.000
    N5448    N        0.88680    0.63764    0.83199    1.000
    N5449    N        0.90340    0.70267    0.83316    1.000
    Si5450   Si       0.91467    0.66304    0.85258    1.000
    Si5451   Si       0.88098    0.72947    0.86028    1.000
    N5452    N        0.92819    0.67364    0.76832    1.000
    Si5453   Si       0.90378    0.57802    0.94215    1.000
    N5454    N        0.90802    0.55367    0.97833    1.000
    N5455    N        0.88987    0.62040    0.94841    1.000
    Si5456   Si       0.87293    0.55061    0.87541    1.000
    Si5457   Si       0.87580    0.52842    0.99491    1.000
    Si5458   Si       0.88425    0.74565    0.93335    1.000
    Si5459   Si       0.92297    0.63461    0.92470    1.000
    N5460    N        0.91219    0.73624    0.89293    1.000
    N5461    N        0.91152    0.71540    0.95261    1.000
    N5462    N        0.91467    0.66482    0.89512    1.000
    N5463    N        0.90290    0.80848    0.06649    1.000
    Si5464   Si       0.88876    0.77565    0.08973    1.000
    Si5465   Si       0.88631    0.84647    0.05454    1.000
    N5466    N        0.92123    0.87131    0.04909    1.000
    N5467    N        0.87475    0.86463    0.09314    1.000
    Si5468   Si       0.91705    0.91050    0.06805    1.000
    N5469    N        0.88573    0.93333    0.05182    1.000
    N5470    N        0.92011    0.90932    0.11130    1.000
    N5471    N        0.90436    0.00213    0.05676    1.000
    Si5472   Si       0.87695    0.97226    0.06796    1.000
    N5473    N        0.87153    0.96425    0.11023    1.000
    Si5474   Si       0.92491    0.83057    0.25039    1.000
    Si5475   Si       0.90502    0.86977    0.12773    1.000
    N5476    N        0.90931    0.76981    0.12789    1.000
    N5477    N        0.91130    0.85299    0.21728    1.000
    Si5478   Si       0.91745    0.80219    0.15450    1.000
    N5479    N        0.87962    0.82033    0.16211    1.000
    Si5480   Si       0.87486    0.85427    0.19146    1.000
    N5481    N        0.91059    0.78681    0.24482    1.000
    N5482    N        0.87105    0.88416    0.15332    1.000
    N5483    N        0.92801    0.91957    0.22883    1.000
    N5484    N        0.91524    0.99332    0.23086    1.000
    N5485    N        0.89983    0.94811    0.17313    1.000
    Si5486   Si       0.92694    0.95852    0.20659    1.000
    Si5487   Si       0.90659    0.94721    0.13073    1.000
    N5488    N        0.90824    0.82561    0.29075    1.000
    Si5489   Si       0.89289    0.78646    0.28235    1.000
    Si5490   Si       0.89379    0.85762    0.31531    1.000
    N5491    N        0.90419    0.76116    0.31626    1.000
    N5492    N        0.92755    0.87218    0.33824    1.000
    N5493    N        0.90056    0.88909    0.28361    1.000
    N5494    N        0.91651    0.93970    0.32259    1.000
    N5495    N        0.92452    0.99584    0.36558    1.000
    Si5496   Si       0.88857    0.91203    0.24973    1.000
    Si5497   Si       0.87259    0.94275    0.31533    1.000
    Si5498   Si       0.88146    0.98538    0.37392    1.000
    N5499    N        0.92862    0.83917    0.40172    1.000
    Si5500   Si       0.92054    0.81905    0.48855    1.000
    N5501    N        0.90263    0.85263    0.46885    1.000
    N5502    N        0.90979    0.77350    0.39444    1.000
    Si5503   Si       0.89237    0.84498    0.42757    1.000
    N5504    N        0.87235    0.88094    0.41301    1.000
    Si5505   Si       0.90002    0.91781    0.41212    1.000
    N5506    N        0.87189    0.95084    0.40019    1.000
    N5507    N        0.91454    0.99596    0.43440    1.000
    Si5508   Si       0.91407    0.89205    0.48427    1.000
    N5509    N        0.91183    0.92389    0.45416    1.000
    Si5510   Si       0.92029    0.96520    0.46510    1.000
    N5511    N        0.90298    0.81771    0.57735    1.000
    Si5512   Si       0.92105    0.78050    0.58782    1.000
    N5513    N        0.89266    0.79059    0.50443    1.000
    N5514    N        0.88216    0.87874    0.60024    1.000
    N5515    N        0.88880    0.89926    0.51824    1.000
    Si5516   Si       0.88539    0.99006    0.58451    1.000
    Si5517   Si       0.88118    0.94201    0.52751    1.000
    N5518    N        0.87977    0.94982    0.57127    1.000
    N5519    N        0.91489    0.99189    0.61788    1.000
    N5520    N        0.89532    0.97124    0.49880    1.000
    N5521    N        0.92507    0.77928    0.62993    1.000
    Si5522   Si       0.89403    0.78049    0.66021    1.000
    N5523    N        0.91986    0.85613    0.65837    1.000
    Si5524   Si       0.88269    0.84956    0.68064    1.000
    N5525    N        0.88398    0.85693    0.72403    1.000
    N5526    N        0.92708    0.78503    0.69058    1.000
    Si5527   Si       0.93154    0.77622    0.73150    1.000
    N5528    N        0.91673    0.92131    0.63888    1.000
    Si5529   Si       0.92089    0.87993    0.62105    1.000
    Si5530   Si       0.91979    0.96102    0.71856    1.000
    N5531    N        0.89723    0.92616    0.70676    1.000
    Si5532   Si       0.88063    0.91734    0.66523    1.000
    Si5533   Si       0.89166    0.89709    0.74022    1.000
    Si5534   Si       0.90627    0.87111    0.80712    1.000
    Si5535   Si       0.92206    0.85142    0.86608    1.000
    N5536    N        0.88897    0.87493    0.84801    1.000
    Si5537   Si       0.88266    0.82822    0.75685    1.000
    N5538    N        0.92595    0.81419    0.75642    1.000
    N5539    N        0.87092    0.85682    0.78644    1.000
    Si5540   Si       0.87390    0.79724    0.86964    1.000
    N5541    N        0.91623    0.97545    0.87171    1.000
    N5542    N        0.92321    0.89519    0.77145    1.000
    N5543    N        0.89886    0.98276    0.75214    1.000
    Si5544   Si       0.87807    0.98529    0.85150    1.000
    N5545    N        0.87470    0.96257    0.81521    1.000
    Si5546   Si       0.92456    0.80993    0.92697    1.000
    Si5547   Si       0.91568    0.87219    0.92915    1.000
    N5548    N        0.91235    0.81373    0.88254    1.000
    N5549    N        0.89850    0.78523    0.95444    1.000
    N5550    N        0.88047    0.84336    0.92892    1.000
    Si5551   Si       0.90783    0.77685    0.99871    1.000
    N5552    N        0.92933    0.93753    0.98403    1.000
    N5553    N        0.88718    0.90305    0.94282    1.000
    N5554    N        0.88433    0.97342    0.93818    1.000
    Si5555   Si       0.89182    0.94078    0.96566    1.000
    Si5556   Si       0.91605    0.99160    0.91182    1.000
    N5557    N        0.97607    0.07252    0.09985    1.000
    Si5558   Si       0.93658    0.06995    0.08269    1.000
    N5559    N        0.96845    0.01242    0.07684    1.000
    N5560    N        0.93621    0.06256    0.03927    1.000
    N5561    N        0.98189    0.17806    0.00019    1.000
    N5562    N        0.95218    0.23883    0.10017    1.000
    N5563    N        0.96396    0.23465    0.02751    1.000
    Si5564   Si       0.93434    0.19663    0.10592    1.000
    Si5565   Si       0.97227    0.25692    0.06632    1.000
    N5566    N        0.94883    0.09582    0.21036    1.000
    N5567    N        0.98375    0.11919    0.15838    1.000
    N5568    N        0.97057    0.03675    0.24789    1.000
    N5569    N        0.96648    0.17311    0.12128    1.000
    Si5570   Si       0.93994    0.24645    0.14250    1.000
    Si5571   Si       0.96412    0.15906    0.16222    1.000
    N5572    N        0.97717    0.24023    0.16280    1.000
    N5573    N        0.98866    0.18064    0.19051    1.000
    N5574    N        0.96872    0.05469    0.34572    1.000
    N5575    N        0.98049    0.09734    0.27339    1.000
    N5576    N        0.95218    0.12464    0.33017    1.000
    Si5577   Si       0.94275    0.08793    0.35124    1.000
    Si5578   Si       0.94943    0.07568    0.24765    1.000
    Si5579   Si       0.95487    0.12969    0.28652    1.000
    Si5580   Si       0.93297    0.02946    0.33664    1.000
    Si5581   Si       0.98659    0.21002    0.35274    1.000
    Si5582   Si       0.95755    0.20013    0.28192    1.000
    N5583    N        0.96673    0.16640    0.25872    1.000
    N5584    N        0.94762    0.22601    0.35850    1.000
    N5585    N        0.95458    0.24029    0.26130    1.000
    N5586    N        0.99218    0.20644    0.30977    1.000
    N5587    N        0.96499    0.03733    0.41186    1.000
    N5588    N        0.95420    0.08066    0.46501    1.000
    N5589    N        0.94761    0.10480    0.39020    1.000
    Si5590   Si       0.94476    0.07515    0.42236    1.000
    N5591    N        0.97917    0.24949    0.43363    1.000
    N5592    N        0.98544    0.16980    0.37404    1.000
    N5593    N        0.98423    0.19043    0.48092    1.000
    Si5594   Si       0.94299    0.19305    0.49266    1.000
    Si5595   Si       0.94957    0.14404    0.36987    1.000
    N5596    N        0.96491    0.02629    0.51856    1.000
    Si5597   Si       0.95409    0.08930    0.57515    1.000
    N5598    N        0.94718    0.04865    0.58664    1.000
    N5599    N        0.94051    0.11477    0.60834    1.000
    Si5600   Si       0.94690    0.01614    0.55712    1.000
    Si5601   Si       0.94076    0.06202    0.50133    1.000
    N5602    N        0.93877    0.09023    0.53369    1.000
    Si5603   Si       0.94036    0.18866    0.56717    1.000
    N5604    N        0.95479    0.15218    0.55030    1.000
    N5605    N        0.97288    0.20902    0.58375    1.000
    N5606    N        0.93766    0.21292    0.53097    1.000
    Si5607   Si       0.98565    0.25063    0.58290    1.000
    Si5608   Si       0.93775    0.25567    0.53537    1.000
    N5609    N        0.96375    0.04333    0.71146    1.000
    N5610    N        0.96453    0.02615    0.64650    1.000
    Si5611   Si       0.95496    0.12593    0.70301    1.000
    Si5612   Si       0.97172    0.13170    0.63190    1.000
    Si5613   Si       0.97021    0.00917    0.68660    1.000
    N5614    N        0.93955    0.15244    0.73268    1.000
    Si5615   Si       0.94075    0.25011    0.68214    1.000
    N5616    N        0.96266    0.15221    0.66988    1.000
    Si5617   Si       0.98201    0.18546    0.68927    1.000
    N5618    N        0.95027    0.21137    0.70163    1.000
    Si5619   Si       0.94310    0.19589    0.74095    1.000
    Si5620   Si       0.95783    0.03994    0.82758    1.000
    N5621    N        0.94867    0.06984    0.85963    1.000
    N5622    N        0.96538    0.13093    0.79596    1.000
    Si5623   Si       0.93139    0.12999    0.76855    1.000
    N5624    N        0.97651    0.18898    0.84301    1.000
    Si5625   Si       0.97692    0.21780    0.80985    1.000
    Si5626   Si       0.96569    0.14738    0.83592    1.000
    N5627    N        0.97423    0.20425    0.76909    1.000
    N5628    N        0.94891    0.24945    0.82098    1.000
    N5629    N        0.93022    0.13629    0.86039    1.000
    N5630    N        0.97529    0.11426    0.98171    1.000
    N5631    N        0.95468    0.04820    0.95542    1.000
    Si5632   Si       0.95933    0.08946    0.94988    1.000
    Si5633   Si       0.98160    0.21918    0.98672    1.000
    N5634    N        0.95093    0.23603    0.96129    1.000
    N5635    N        0.94213    0.19849    0.90286    1.000
    Si5636   Si       0.98048    0.20294    0.88344    1.000
    Si5637   Si       0.95183    0.14799    0.99376    1.000
    N5638    N        0.96302    0.29582    0.04887    1.000
    Si5639   Si       0.96793    0.32646    0.01953    1.000
    N5640    N        0.95095    0.36229    0.03963    1.000
    Si5641   Si       0.94288    0.36213    0.08266    1.000
    N5642    N        0.97638    0.36939    0.11177    1.000
    N5643    N        0.96760    0.47410    0.02609    1.000
    Si5644   Si       0.94637    0.45156    0.05549    1.000
    N5645    N        0.97842    0.42604    0.07326    1.000
    Si5646   Si       0.96556    0.41191    0.11100    1.000
    Si5647   Si       0.93837    0.39418    0.01367    1.000
    N5648    N        0.97937    0.40779    0.00409    1.000
    Si5649   Si       0.94002    0.50173    0.00593    1.000
    N5650    N        0.93172    0.47960    0.08639    1.000
    N5651    N        0.97175    0.30424    0.13907    1.000
    N5652    N        0.97571    0.35504    0.22932    1.000
    Si5653   Si       0.98326    0.26890    0.24682    1.000
    Si5654   Si       0.98721    0.39543    0.23377    1.000
    N5655    N        0.94551    0.45866    0.20217    1.000
    N5656    N        0.96968    0.44518    0.14096    1.000
    Si5657   Si       0.95102    0.48167    0.12657    1.000
    Si5658   Si       0.98302    0.45093    0.18103    1.000
    Si5659   Si       0.95740    0.33187    0.26271    1.000
    N5660    N        0.93923    0.36291    0.28511    1.000
    Si5661   Si       0.93433    0.26737    0.35828    1.000
    Si5662   Si       0.94545    0.38506    0.32208    1.000
    N5663    N        0.98847    0.30435    0.27485    1.000
    Si5664   Si       0.94425    0.44992    0.35226    1.000
    N5665    N        0.97291    0.48692    0.26657    1.000
    N5666    N        0.97723    0.47196    0.33469    1.000
    N5667    N        0.95374    0.41610    0.25180    1.000
    N5668    N        0.98726    0.39384    0.33009    1.000
    Si5669   Si       0.93256    0.50493    0.27636    1.000
    Si5670   Si       0.94623    0.45835    0.24508    1.000
    N5671    N        0.96699    0.29192    0.37312    1.000
    N5672    N        0.97417    0.33934    0.47446    1.000
    Si5673   Si       0.95527    0.33535    0.37864    1.000
    Si5674   Si       0.94010    0.35472    0.45200    1.000
    Si5675   Si       0.94847    0.25842    0.46347    1.000
    N5676    N        0.93139    0.33471    0.41452    1.000
    Si5677   Si       0.93195    0.49745    0.41840    1.000
    Si5678   Si       0.94359    0.42759    0.42596    1.000
    N5679    N        0.96080    0.39203    0.44548    1.000
    N5680    N        0.95927    0.46813    0.43803    1.000
    N5681    N        0.95854    0.42109    0.38314    1.000
    Si5682   Si       0.97504    0.36337    0.56771    1.000
    N5683    N        0.97141    0.33217    0.53979    1.000
    N5684    N        0.94720    0.26654    0.57540    1.000
    Si5685   Si       0.98200    0.31113    0.50556    1.000
    N5686    N        0.96555    0.26852    0.50200    1.000
    N5687    N        0.93386    0.37147    0.57897    1.000
    N5688    N        0.97198    0.47093    0.56403    1.000
    N5689    N        0.94267    0.41293    0.52474    1.000
    Si5690   Si       0.98165    0.49817    0.53215    1.000
    Si5691   Si       0.98371    0.42524    0.52169    1.000
    N5692    N        0.98563    0.46592    0.50401    1.000
    N5693    N        0.95827    0.38340    0.63911    1.000
    Si5694   Si       0.98705    0.31325    0.69810    1.000
    N5695    N        0.94578    0.31703    0.62626    1.000
    N5696    N        0.97899    0.27300    0.67926    1.000
    N5697    N        0.95340    0.32955    0.72217    1.000
    N5698    N        0.93769    0.44895    0.66572    1.000
    Si5699   Si       0.95004    0.40912    0.67440    1.000
    Si5700   Si       0.95574    0.48278    0.64392    1.000
    N5701    N        0.95502    0.50536    0.68313    1.000
    Si5702   Si       0.95243    0.29062    0.81345    1.000
    N5703    N        0.96421    0.36502    0.80960    1.000
    N5704    N        0.94419    0.31505    0.84869    1.000
    Si5705   Si       0.94136    0.35912    0.84647    1.000
    N5706    N        0.97239    0.48109    0.78502    1.000
    Si5707   Si       0.94731    0.39652    0.78513    1.000
    Si5708   Si       0.94233    0.46958    0.81295    1.000
    N5709    N        0.94794    0.49599    0.84648    1.000
    N5710    N        0.98028    0.41451    0.76352    1.000
    N5711    N        0.93457    0.42590    0.81541    1.000
    Si5712   Si       0.96662    0.45311    0.75096    1.000
    N5713    N        0.95784    0.36422    0.88846    1.000
    Si5714   Si       0.95984    0.31965    0.88850    1.000
    Si5715   Si       0.95582    0.27910    0.95377    1.000
    N5716    N        0.94637    0.30882    0.98668    1.000
    N5717    N        0.93804    0.29653    0.91925    1.000
    Si5718   Si       0.93229    0.45494    0.94383    1.000
    Si5719   Si       0.98253    0.39597    0.90501    1.000
    N5720    N        0.94381    0.49169    0.96398    1.000
    N5721    N        0.96105    0.42091    0.93512    1.000
    N5722    N        0.98113    0.48185    0.90826    1.000
    N5723    N        0.95736    0.54056    0.02063    1.000
    Si5724   Si       0.97654    0.55024    0.10335    1.000
    N5725    N        0.96239    0.62186    0.06982    1.000
    N5726    N        0.93652    0.55708    0.08964    1.000
    Si5727   Si       0.93431    0.57429    0.00583    1.000
    Si5728   Si       0.92686    0.59791    0.07583    1.000
    Si5729   Si       0.97591    0.69665    0.09888    1.000
    N5730    N        0.97760    0.70812    0.05483    1.000
    Si5731   Si       0.93767    0.73021    0.05690    1.000
    N5732    N        0.93129    0.69984    0.09199    1.000
    N5733    N        0.94517    0.59672    0.20325    1.000
    Si5734   Si       0.95752    0.56138    0.22595    1.000
    N5735    N        0.95360    0.52893    0.19337    1.000
    N5736    N        0.97692    0.51847    0.13314    1.000
    N5737    N        0.98058    0.66595    0.19429    1.000
    Si5738   Si       0.95168    0.63817    0.21527    1.000
    N5739    N        0.98453    0.73284    0.17701    1.000
    N5740    N        0.93987    0.72256    0.22480    1.000
    Si5741   Si       0.95662    0.70292    0.18794    1.000
    Si5742   Si       0.97964    0.59855    0.27901    1.000
    N5743    N        0.93872    0.59250    0.29107    1.000
    N5744    N        0.96637    0.53785    0.36188    1.000
    N5745    N        0.97897    0.63447    0.25165    1.000
    N5746    N        0.96168    0.72585    0.29379    1.000
    N5747    N        0.96716    0.71913    0.35486    1.000
    Si5748   Si       0.97490    0.72968    0.25124    1.000
    Si5749   Si       0.93516    0.73209    0.32766    1.000
    Si5750   Si       0.96122    0.56312    0.39818    1.000
    N5751    N        0.97533    0.58753    0.47986    1.000
    N5752    N        0.95247    0.53420    0.43083    1.000
    Si5753   Si       0.96756    0.62843    0.46827    1.000
    Si5754   Si       0.98503    0.55369    0.45477    1.000
    N5755    N        0.93229    0.59263    0.39114    1.000
    N5756    N        0.96951    0.65782    0.49926    1.000
    N5757    N        0.94255    0.71800    0.41459    1.000
    Si5758   Si       0.93407    0.69388    0.37834    1.000
    Si5759   Si       0.98409    0.73073    0.39571    1.000
    N5760    N        0.95452    0.65599    0.38680    1.000
    Si5761   Si       0.93220    0.75916    0.43176    1.000
    N5762    N        0.95884    0.53520    0.52829    1.000
    N5763    N        0.96959    0.56319    0.60118    1.000
    Si5764   Si       0.97148    0.60507    0.59531    1.000
    N5765    N        0.96646    0.60398    0.54975    1.000
    Si5766   Si       0.98089    0.57436    0.52275    1.000
    N5767    N        0.94947    0.69307    0.56056    1.000
    Si5768   Si       0.94127    0.68485    0.51796    1.000
    N5769    N        0.94258    0.72697    0.50410    1.000
    Si5770   Si       0.98670    0.73867    0.50390    1.000
    Si5771   Si       0.98608    0.63685    0.64771    1.000
    N5772    N        0.94900    0.62193    0.62671    1.000
    N5773    N        0.95689    0.61770    0.72821    1.000
    N5774    N        0.97789    0.67618    0.66226    1.000
    N5775    N        0.96697    0.71275    0.72503    1.000
    Si5776   Si       0.96550    0.70816    0.63759    1.000
    N5777    N        0.97817    0.74663    0.65600    1.000
    N5778    N        0.97286    0.56655    0.85498    1.000
    Si5779   Si       0.97803    0.58519    0.81617    1.000
    N5780    N        0.94106    0.60442    0.79868    1.000
    Si5781   Si       0.98174    0.52441    0.84167    1.000
    Si5782   Si       0.93338    0.63155    0.76409    1.000
    N5783    N        0.96754    0.72466    0.79698    1.000
    N5784    N        0.95433    0.66653    0.83463    1.000
    Si5785   Si       0.93540    0.69570    0.80387    1.000
    Si5786   Si       0.98314    0.73649    0.75666    1.000
    N5787    N        0.98040    0.75548    0.85934    1.000
    Si5788   Si       0.96540    0.51341    0.93296    1.000
    N5789    N        0.94035    0.59489    0.91897    1.000
    N5790    N        0.95478    0.60161    0.98172    1.000
    Si5791   Si       0.97354    0.58593    0.94753    1.000
    Si5792   Si       0.93997    0.56981    0.88413    1.000
    N5793    N        0.93794    0.53208    0.90575    1.000
    N5794    N        0.98817    0.54547    0.95185    1.000
    Si5795   Si       0.95414    0.75006    0.89378    1.000
    Si5796   Si       0.93314    0.71061    0.98711    1.000
    Si5797   Si       0.95413    0.64399    0.98525    1.000
    N5798    N        0.95685    0.65597    0.94317    1.000
    N5799    N        0.97659    0.71150    0.98161    1.000
    N5800    N        0.97168    0.71530    0.91239    1.000
    Si5801   Si       0.93099    0.69793    0.91858    1.000
    Si5802   Si       0.94463    0.80483    0.05243    1.000
    N5803    N        0.96969    0.83437    0.07041    1.000
    Si5804   Si       0.96622    0.87294    0.05018    1.000
    N5805    N        0.95955    0.76909    0.06943    1.000
    N5806    N        0.93914    0.80726    0.00988    1.000
    N5807    N        0.98146    0.86715    0.00976    1.000
    N5808    N        0.95657    0.92593    0.04915    1.000
    Si5809   Si       0.95680    0.95208    0.01398    1.000
    N5810    N        0.95157    0.99497    0.00571    1.000
    Si5811   Si       0.93061    0.00550    0.09390    1.000
    Si5812   Si       0.97376    0.84648    0.16041    1.000
    Si5813   Si       0.97779    0.77332    0.19057    1.000
    N5814    N        0.93530    0.77948    0.18608    1.000
    N5815    N        0.93565    0.84053    0.14049    1.000
    N5816    N        0.98822    0.76826    0.23355    1.000
    N5817    N        0.97318    0.88077    0.18751    1.000
    Si5818   Si       0.94571    0.88079    0.22182    1.000
    Si5819   Si       0.97521    0.97707    0.14852    1.000
    N5820    N        0.93934    0.97435    0.12271    1.000
    N5821    N        0.96396    0.97189    0.19072    1.000
    N5822    N        0.96967    0.80604    0.35492    1.000
    N5823    N        0.96141    0.85520    0.25247    1.000
    N5824    N        0.97463    0.97156    0.26000    1.000
    N5825    N        0.97282    0.90731    0.28913    1.000
    Si5826   Si       0.93999    0.97209    0.32913    1.000
    N5827    N        0.98239    0.96546    0.32623    1.000
    Si5828   Si       0.94557    0.00401    0.26136    1.000
    Si5829   Si       0.93411    0.90318    0.30859    1.000
    N5830    N        0.93046    0.00527    0.30131    1.000
    Si5831   Si       0.98330    0.79991    0.45180    1.000
    Si5832   Si       0.94680    0.86994    0.37597    1.000
    Si5833   Si       0.94242    0.80173    0.38799    1.000
    N5834    N        0.94029    0.79257    0.46052    1.000
    N5835    N        0.96968    0.77385    0.40985    1.000
    N5836    N        0.98687    0.84293    0.46972    1.000
    N5837    N        0.98823    0.87250    0.39062    1.000
    Si5838   Si       0.97948    0.92948    0.48170    1.000
    N5839    N        0.93887    0.90987    0.39276    1.000
    N5840    N        0.97812    0.97058    0.39717    1.000
    Si5841   Si       0.97947    0.92486    0.40210    1.000
    Si5842   Si       0.94642    0.99798    0.40489    1.000
    N5843    N        0.96213    0.96959    0.47946    1.000
    N5844    N        0.95466    0.89724    0.49857    1.000
    N5845    N        0.96361    0.79555    0.57628    1.000
    N5846    N        0.94965    0.86549    0.59092    1.000
    Si5847   Si       0.97449    0.85969    0.50778    1.000
    Si5848   Si       0.94157    0.83205    0.56468    1.000
    N5849    N        0.94202    0.83384    0.52225    1.000
    Si5850   Si       0.98891    0.87955    0.60127    1.000
    N5851    N        0.97691    0.98486    0.56192    1.000
    Si5852   Si       0.98359    0.98504    0.51539    1.000
    Si5853   Si       0.95680    0.78345    0.65818    1.000
    N5854    N        0.97091    0.85438    0.71219    1.000
    Si5855   Si       0.96229    0.85498    0.66860    1.000
    N5856    N        0.98011    0.81967    0.65234    1.000
    N5857    N        0.97358    0.77657    0.74369    1.000
    Si5858   Si       0.96733    0.82220    0.74566    1.000
    N5859    N        0.98185    0.88674    0.64562    1.000
    N5860    N        0.93574    0.97814    0.68194    1.000
    Si5861   Si       0.93655    0.96204    0.64231    1.000
    N5862    N        0.97891    0.95424    0.63285    1.000
    N5863    N        0.95414    0.95518    0.74384    1.000
    Si5864   Si       0.98079    0.84809    0.81628    1.000
    N5865    N        0.93791    0.84779    0.82473    1.000
    N5866    N        0.97555    0.00480    0.77146    1.000
    N5867    N        0.94478    0.95398    0.80789    1.000
    Si5868   Si       0.95457    0.92420    0.77506    1.000
    Si5869   Si       0.95305    0.96738    0.84852    1.000
    Si5870   Si       0.93640    0.98918    0.77934    1.000
    N5871    N        0.97472    0.00565    0.84924    1.000
    Si5872   Si       0.96420    0.83423    0.98524    1.000
    N5873    N        0.95742    0.78166    0.92052    1.000
    N5874    N        0.94011    0.84363    0.94864    1.000
    N5875    N        0.93996    0.88062    0.89236    1.000
    Si5876   Si       0.96814    0.00832    0.96635    1.000
    Si5877   Si       0.97797    0.89797    0.87336    1.000
    N5878    N        0.95808    0.98386    0.92977    1.000
    N5879    N        0.97583    0.94154    0.87530    1.000
