# CIF file generated by openbabel 3.1.1, see https://openbabel.org
data_I
_chemical_name_common '3.01-38.aims'
_cell_length_a 39.9315
_cell_length_b 39.9315
_cell_length_c 39.9315
_cell_angle_alpha 90
_cell_angle_beta 90
_cell_angle_gamma 90
loop_
    _atom_site_label
    _atom_site_type_symbol
    _atom_site_fract_x
    _atom_site_fract_y
    _atom_site_fract_z
    _atom_site_occupancy
    N0       N        0.01127    0.08102    0.03494    1.000
    Si1      Si       0.03092    0.05474    0.06426    1.000
    N2       N        0.99895    0.03279    0.08601    1.000
    Si3      Si       0.04056    0.08745    0.00186    1.000
    N4       N        0.04574    0.02006    0.04194    1.000
    N5       N        0.00622    0.24078    0.01261    1.000
    N6       N        0.02260    0.24157    0.08103    1.000
    Si7      Si       0.00692    0.21782    0.04844    1.000
    Si8      Si       0.02306    0.15545    0.01262    1.000
    N9       N        0.03930    0.18532    0.04137    1.000
    Si10     Si       0.99495    0.25106    0.11313    1.000
    Si11     Si       0.00699    0.02879    0.18775    1.000
    Si12     Si       0.01796    0.12929    0.15824    1.000
    N13      N        0.99661    0.16188    0.17550    1.000
    N14      N        0.01432    0.21649    0.20812    1.000
    N15      N        0.04094    0.14688    0.12282    1.000
    Si16     Si       0.00530    0.20521    0.16771    1.000
    N17      N        0.04379    0.21451    0.14913    1.000
    N18      N        0.03019    0.02895    0.25725    1.000
    N19      N        0.04113    0.02820    0.35748    1.000
    N20      N        0.00211    0.09236    0.26299    1.000
    Si21     Si       0.99433    0.05102    0.25272    1.000
    Si22     Si       0.00056    0.01990    0.37031    1.000
    Si23     Si       0.00826    0.13203    0.27327    1.000
    Si24     Si       0.01673    0.14330    0.34858    1.000
    N25      N        0.03022    0.20026    0.27431    1.000
    Si26     Si       0.02953    0.21801    0.31465    1.000
    N27      N        0.03508    0.18321    0.34313    1.000
    N28      N        0.99163    0.13961    0.31383    1.000
    Si29     Si       0.99842    0.20256    0.24581    1.000
    N30      N        0.99128    0.15997    0.24447    1.000
    N31      N        0.03474    0.07772    0.40283    1.000
    N32      N        0.02720    0.11544    0.45137    1.000
    Si33     Si       0.01790    0.07373    0.44273    1.000
    N34      N        0.99749    0.12802    0.38365    1.000
    Si35     Si       0.02641    0.12618    0.49288    1.000
    N36      N        0.04126    0.04541    0.46624    1.000
    Si37     Si       0.99279    0.08557    0.38725    1.000
    N38      N        0.00458    0.01078    0.41418    1.000
    Si39     Si       0.04515    0.12369    0.40953    1.000
    N40      N        0.01101    0.22691    0.38484    1.000
    N41      N        0.03068    0.16844    0.48968    1.000
    N42      N        0.03152    0.22347    0.45247    1.000
    Si43     Si       0.00149    0.25267    0.45955    1.000
    Si44     Si       0.02236    0.17885    0.44835    1.000
    N45      N        0.04456    0.16818    0.41195    1.000
    Si46     Si       0.04608    0.19971    0.38285    1.000
    N47      N        0.01313    0.05049    0.53936    1.000
    N48      N        0.01528    0.08230    0.60094    1.000
    Si49     Si       0.99701    0.11770    0.61503    1.000
    N50      N        0.03042    0.01629    0.58719    1.000
    Si51     Si       0.99529    0.04816    0.58014    1.000
    N52      N        0.98841    0.11283    0.51065    1.000
    Si53     Si       0.02731    0.24938    0.52802    1.000
    N54      N        0.00390    0.21263    0.53591    1.000
    N55      N        0.03276    0.21351    0.60347    1.000
    N56      N        0.02930    0.14650    0.61120    1.000
    Si57     Si       0.04192    0.18987    0.52653    1.000
    N58      N        0.01501    0.10947    0.72193    1.000
    N59      N        0.00440    0.03513    0.64798    1.000
    Si60     Si       0.03877    0.01648    0.63157    1.000
    N61      N        0.99346    0.11056    0.65677    1.000
    Si62     Si       0.00496    0.13646    0.69026    1.000
    Si63     Si       0.00052    0.23135    0.63134    1.000
    Si64     Si       0.02638    0.24491    0.70616    1.000
    N65      N        0.03787    0.15989    0.67906    1.000
    N66      N        0.04217    0.21192    0.73316    1.000
    N67      N        0.00113    0.23043    0.67422    1.000
    Si68     Si       0.01270    0.12221    0.83699    1.000
    Si69     Si       0.02697    0.04402    0.84134    1.000
    N70      N        0.03118    0.08308    0.82635    1.000
    Si71     Si       0.02467    0.02007    0.77288    1.000
    N72      N        0.00763    0.05914    0.76219    1.000
    Si73     Si       0.02812    0.08962    0.78393    1.000
    N74      N        0.00271    0.12592    0.79379    1.000
    N75      N        0.01320    0.01242    0.81464    1.000
    N76      N        0.00416    0.20488    0.79596    1.000
    N77      N        0.02956    0.16068    0.85057    1.000
    Si78     Si       0.02340    0.23083    0.76820    1.000
    Si79     Si       0.03689    0.18902    0.81967    1.000
    N80      N        0.99348    0.04589    0.86977    1.000
    N81      N        0.00039    0.01720    0.94589    1.000
    N82      N        0.01285    0.10664    0.97247    1.000
    N83      N        0.03172    0.07846    0.91418    1.000
    Si84     Si       0.03872    0.11233    0.93875    1.000
    Si85     Si       0.03660    0.03981    0.93470    1.000
    Si86     Si       0.99136    0.08130    0.89339    1.000
    Si87     Si       0.04477    0.16735    0.88944    1.000
    Si88     Si       0.03211    0.22021    0.98250    1.000
    N89      N        0.01369    0.18239    0.97830    1.000
    N90      N        0.02062    0.14793    0.92085    1.000
    N91      N        0.04095    0.20896    0.90311    1.000
    Si92     Si       0.99088    0.16864    0.94388    1.000
    Si93     Si       0.01013    0.23669    0.92133    1.000
    N94      N        0.02870    0.25731    0.95528    1.000
    Si95     Si       0.03441    0.34505    0.01496    1.000
    N96      N        0.00528    0.35755    0.04271    1.000
    N97      N        0.03246    0.30204    0.01135    1.000
    Si98     Si       0.04757    0.37738    0.11505    1.000
    N99      N        0.00767    0.39097    0.10721    1.000
    N100     N        0.02632    0.43477    0.05393    1.000
    Si101    Si       0.99315    0.42138    0.07819    1.000
    Si102    Si       0.99346    0.46439    0.00291    1.000
    N103     N        0.03766    0.44994    0.11995    1.000
    Si104    Si       0.03164    0.35858    0.18263    1.000
    N105     N        0.00951    0.28280    0.13948    1.000
    N106     N        0.03685    0.37786    0.21914    1.000
    Si107    Si       0.00204    0.47398    0.13019    1.000
    Si108    Si       0.03013    0.43093    0.16153    1.000
    N109     N        0.99047    0.45394    0.16832    1.000
    N110     N        0.00981    0.49661    0.23335    1.000
    N111     N        0.04828    0.39053    0.15779    1.000
    N112     N        0.02007    0.35079    0.33683    1.000
    Si113    Si       0.02740    0.33404    0.29598    1.000
    N114     N        0.00003    0.30616    0.27641    1.000
    N115     N        0.04363    0.26074    0.25331    1.000
    N116     N        0.03160    0.29062    0.36615    1.000
    Si117    Si       0.00400    0.27481    0.24670    1.000
    N118     N        0.05202    0.36907    0.27853    1.000
    Si119    Si       0.99609    0.38234    0.32336    1.000
    Si120    Si       0.01531    0.38582    0.25695    1.000
    Si121    Si       0.00678    0.45420    0.29363    1.000
    N122     N        0.00884    0.42433    0.32623    1.000
    N123     N        0.00167    0.42777    0.26083    1.000
    Si124    Si       0.00621    0.44193    0.36884    1.000
    N125     N        0.04177    0.47756    0.29564    1.000
    Si126    Si       0.04578    0.49875    0.25873    1.000
    Si127    Si       0.02166    0.33179    0.37591    1.000
    N128     N        0.00751    0.28232    0.42692    1.000
    Si129    Si       0.03165    0.26305    0.39763    1.000
    Si130    Si       0.00959    0.31551    0.49269    1.000
    N131     N        0.01041    0.27189    0.49629    1.000
    N132     N        0.03177    0.39276    0.45607    1.000
    N133     N        0.04297    0.46445    0.36928    1.000
    Si134    Si       0.00972    0.42493    0.43663    1.000
    N135     N        0.00162    0.41081    0.39727    1.000
    N136     N        0.04612    0.45033    0.43652    1.000
    N137     N        0.01446    0.33934    0.53066    1.000
    N138     N        0.01426    0.32523    0.59775    1.000
    Si139    Si       0.03812    0.31575    0.56315    1.000
    N140     N        0.03049    0.27217    0.56428    1.000
    Si141    Si       0.03675    0.36043    0.61557    1.000
    Si142    Si       0.98836    0.37214    0.53576    1.000
    N143     N        0.01139    0.40741    0.54081    1.000
    N144     N        0.02000    0.47682    0.52966    1.000
    Si145    Si       0.01735    0.49249    0.59014    1.000
    Si146    Si       0.98922    0.44568    0.54275    1.000
    N147     N        0.98552    0.46398    0.58121    1.000
    Si148    Si       0.99818    0.29723    0.62588    1.000
    N149     N        0.03306    0.26950    0.63169    1.000
    N150     N        0.00284    0.25974    0.74060    1.000
    N151     N        0.00402    0.38357    0.62998    1.000
    Si152    Si       0.99784    0.40334    0.66865    1.000
    N153     N        0.03374    0.40603    0.68972    1.000
    N154     N        0.01616    0.47041    0.71373    1.000
    N155     N        0.00615    0.49872    0.63070    1.000
    Si156    Si       0.01963    0.47688    0.66738    1.000
    Si157    Si       0.03536    0.40164    0.73137    1.000
    N158     N        0.98983    0.44554    0.65755    1.000
    N159     N        0.01013    0.31135    0.84414    1.000
    Si160    Si       0.03168    0.35851    0.77162    1.000
    N161     N        0.02680    0.31730    0.77069    1.000
    N162     N        0.00091    0.38075    0.74907    1.000
    Si163    Si       0.98999    0.29647    0.76050    1.000
    N164     N        0.03937    0.38466    0.80631    1.000
    Si165    Si       0.00404    0.38730    0.83070    1.000
    Si166    Si       0.01227    0.45922    0.84097    1.000
    N167     N        0.00269    0.49721    0.82275    1.000
    Si168    Si       0.04361    0.49895    0.80823    1.000
    N169     N        0.98884    0.42679    0.82520    1.000
    N170     N        0.01373    0.38087    0.87228    1.000
    N171     N        0.99885    0.26933    0.89602    1.000
    Si172    Si       0.02710    0.29612    0.87961    1.000
    Si173    Si       0.00492    0.27711    0.98840    1.000
    N174     N        0.02160    0.36007    0.97509    1.000
    N175     N        0.01963    0.43399    0.98693    1.000
    N176     N        0.99618    0.50317    0.98026    1.000
    N177     N        0.01457    0.46478    0.88515    1.000
    Si178    Si       0.03891    0.39864    0.96683    1.000
    N179     N        0.02824    0.60763    0.02638    1.000
    N180     N        0.03291    0.56592    0.08818    1.000
    N181     N        0.00501    0.62306    0.08636    1.000
    Si182    Si       0.02283    0.59853    0.11441    1.000
    Si183    Si       0.02086    0.57404    0.99767    1.000
    N184     N        0.04498    0.54771    0.02176    1.000
    Si185    Si       0.04883    0.52794    0.10197    1.000
    Si186    Si       0.99692    0.63660    0.04476    1.000
    Si187    Si       0.00513    0.70940    0.01106    1.000
    N188     N        0.00970    0.72459    0.08751    1.000
    N189     N        0.01933    0.67135    0.02586    1.000
    N190     N        0.03313    0.74166    0.01945    1.000
    Si191    Si       0.02968    0.75628    0.06074    1.000
    Si192    Si       0.02136    0.70314    0.12215    1.000
    N193     N        0.03321    0.54853    0.19286    1.000
    Si194    Si       0.00879    0.53955    0.22901    1.000
    Si195    Si       0.00658    0.54314    0.16117    1.000
    N196     N        0.99653    0.58249    0.14492    1.000
    N197     N        0.01708    0.51537    0.13168    1.000
    Si198    Si       0.00763    0.75191    0.18742    1.000
    N199     N        0.99354    0.67245    0.13332    1.000
    Si200    Si       0.02344    0.69472    0.23520    1.000
    N201     N        0.01971    0.71605    0.16438    1.000
    Si202    Si       0.00809    0.57597    0.33197    1.000
    N203     N        0.02225    0.61540    0.33903    1.000
    N204     N        0.04437    0.54425    0.25384    1.000
    N205     N        0.99170    0.55319    0.36697    1.000
    N206     N        0.01992    0.71209    0.27689    1.000
    Si207    Si       0.02436    0.67307    0.29436    1.000
    Si208    Si       0.00230    0.65036    0.35466    1.000
    N209     N        0.02931    0.65618    0.25459    1.000
    Si210    Si       0.00354    0.75206    0.27337    1.000
    N211     N        0.99509    0.73300    0.34192    1.000
    N212     N        0.98917    0.66981    0.31841    1.000
    Si213    Si       0.01320    0.60965    0.45806    1.000
    Si214    Si       0.01994    0.55538    0.40091    1.000
    N215     N        0.00484    0.57056    0.44035    1.000
    Si216    Si       0.01018    0.53087    0.45525    1.000
    N217     N        0.02661    0.51649    0.41756    1.000
    N218     N        0.02831    0.53565    0.49300    1.000
    N219     N        0.03071    0.67019    0.38113    1.000
    N220     N        0.01532    0.70915    0.45941    1.000
    N221     N        0.00045    0.64641    0.43740    1.000
    Si222    Si       0.03426    0.74576    0.47183    1.000
    Si223    Si       0.01844    0.68645    0.42135    1.000
    Si224    Si       0.01842    0.56696    0.58441    1.000
    N225     N        0.00989    0.52935    0.56641    1.000
    Si226    Si       0.02120    0.62411    0.53103    1.000
    N227     N        0.03962    0.59283    0.55598    1.000
    Si228    Si       0.00305    0.51781    0.52469    1.000
    N229     N        0.04028    0.55617    0.62000    1.000
    N230     N        0.99598    0.60731    0.49842    1.000
    N231     N        0.98958    0.63859    0.55672    1.000
    N232     N        0.03901    0.68042    0.58055    1.000
    Si233    Si       0.02295    0.71752    0.56530    1.000
    N234     N        0.00071    0.70535    0.53130    1.000
    N235     N        0.98971    0.73125    0.59172    1.000
    Si236    Si       0.02392    0.66869    0.62017    1.000
    Si237    Si       0.04286    0.61244    0.73440    1.000
    N238     N        0.03739    0.56836    0.74235    1.000
    N239     N        0.03864    0.51776    0.67930    1.000
    Si240    Si       0.01205    0.54070    0.64907    1.000
    N241     N        0.02629    0.57967    0.67891    1.000
    N242     N        0.00431    0.62958    0.71966    1.000
    N243     N        0.02392    0.70425    0.64474    1.000
    N244     N        0.02962    0.69406    0.71814    1.000
    Si245    Si       0.99108    0.67191    0.72320    1.000
    N246     N        0.04303    0.63210    0.63528    1.000
    Si247    Si       0.00604    0.74219    0.62969    1.000
    Si248    Si       0.02266    0.57286    0.82738    1.000
    N249     N        0.99711    0.57792    0.79207    1.000
    Si250    Si       0.99608    0.55525    0.75493    1.000
    N251     N        0.04932    0.60399    0.83909    1.000
    Si252    Si       0.99792    0.68896    0.79560    1.000
    N253     N        0.00973    0.65409    0.81829    1.000
    N254     N        0.03520    0.70636    0.78424    1.000
    Si255    Si       0.99232    0.74097    0.86019    1.000
    N256     N        0.03493    0.74804    0.86607    1.000
    Si257    Si       0.04905    0.63769    0.81184    1.000
    N258     N        0.01955    0.60277    0.90360    1.000
    N259     N        0.03153    0.52109    0.92184    1.000
    Si260    Si       0.99384    0.51782    0.94031    1.000
    Si261    Si       0.01300    0.62704    0.93765    1.000
    N262     N        0.04577    0.57995    0.96325    1.000
    N263     N        0.00382    0.70408    0.96946    1.000
    N264     N        0.04651    0.64473    0.95542    1.000
    N265     N        0.03814    0.70519    0.91678    1.000
    Si266    Si       0.99432    0.70365    0.92550    1.000
    Si267    Si       0.04293    0.68593    0.95621    1.000
    N268     N        0.00805    0.79363    0.05333    1.000
    Si269    Si       0.00880    0.82327    0.08437    1.000
    N270     N        0.04462    0.84733    0.09271    1.000
    N271     N        0.00836    0.90039    0.06343    1.000
    N272     N        0.02094    0.97137    0.08452    1.000
    Si273    Si       0.02295    0.98281    0.04263    1.000
    Si274    Si       0.02745    0.91394    0.02637    1.000
    Si275    Si       0.00234    0.99985    0.11440    1.000
    Si276    Si       0.04096    0.89004    0.08871    1.000
    N277     N        0.99193    0.98537    0.01193    1.000
    N278     N        0.04944    0.95160    0.02695    1.000
    N279     N        0.99073    0.91340    0.00357    1.000
    N280     N        0.04063    0.86186    0.16469    1.000
    N281     N        0.01244    0.80557    0.12267    1.000
    N282     N        0.03294    0.83147    0.22689    1.000
    Si283    Si       0.01277    0.85567    0.19712    1.000
    Si284    Si       0.03972    0.78902    0.22566    1.000
    N285     N        0.04210    0.77944    0.18217    1.000
    N286     N        0.00525    0.76144    0.23173    1.000
    Si287    Si       0.04842    0.83037    0.13314    1.000
    N288     N        0.99296    0.88724    0.22074    1.000
    N289     N        0.03593    0.98265    0.14392    1.000
    N290     N        0.00728    0.98848    0.20586    1.000
    Si291    Si       0.01416    0.95860    0.17408    1.000
    N292     N        0.02677    0.77839    0.30109    1.000
    Si293    Si       0.01138    0.77358    0.34076    1.000
    N294     N        0.00214    0.85778    0.30079    1.000
    Si295    Si       0.02315    0.87856    0.33363    1.000
    Si296    Si       0.00211    0.88257    0.26500    1.000
    N297     N        0.00266    0.91684    0.34318    1.000
    Si298    Si       0.02210    0.98860    0.24574    1.000
    N299     N        0.99127    0.97444    0.27373    1.000
    N300     N        0.02425    0.86009    0.37236    1.000
    N301     N        0.03632    0.77085    0.37557    1.000
    Si302    Si       0.00025    0.86126    0.40862    1.000
    Si303    Si       0.02815    0.79708    0.40910    1.000
    N304     N        0.99200    0.82002    0.41576    1.000
    N305     N        0.04082    0.77793    0.44484    1.000
    N306     N        0.02510    0.87632    0.44280    1.000
    Si307    Si       0.00161    0.89200    0.47404    1.000
    Si308    Si       0.04065    0.00821    0.44190    1.000
    N309     N        0.01933    0.81346    0.55547    1.000
    Si310    Si       0.03884    0.78096    0.53302    1.000
    Si311    Si       0.04079    0.84966    0.56919    1.000
    N312     N        0.01144    0.76643    0.50205    1.000
    N313     N        0.04549    0.84008    0.61075    1.000
    N314     N        0.98929    0.86619    0.50690    1.000
    N315     N        0.01917    0.88790    0.57152    1.000
    Si316    Si       0.99881    0.89572    0.53647    1.000
    N317     N        0.02606    0.91745    0.50728    1.000
    Si318    Si       0.02642    0.92221    0.60114    1.000
    Si319    Si       0.99831    0.98312    0.59701    1.000
    N320     N        0.98787    0.94251    0.59170    1.000
    Si321    Si       0.03053    0.96093    0.50138    1.000
    N322     N        0.99432    0.98341    0.49926    1.000
    N323     N        0.03653    0.77392    0.62807    1.000
    N324     N        0.03867    0.80377    0.72510    1.000
    Si325    Si       0.01520    0.81130    0.62988    1.000
    N326     N        0.00190    0.81758    0.67089    1.000
    Si327    Si       0.03009    0.83692    0.69749    1.000
    N328     N        0.01703    0.87659    0.71045    1.000
    Si329    Si       0.02845    0.95708    0.73436    1.000
    Si330    Si       0.00828    0.99247    0.67287    1.000
    N331     N        0.01138    0.94702    0.69629    1.000
    N332     N        0.03177    0.90039    0.64018    1.000
    Si333    Si       0.01163    0.90640    0.67814    1.000
    N334     N        0.01844    0.97465    0.63422    1.000
    Si335    Si       0.00808    0.79658    0.82336    1.000
    N336     N        0.02924    0.84922    0.77840    1.000
    N337     N        0.02719    0.78053    0.78904    1.000
    Si338    Si       0.01290    0.81155    0.76082    1.000
    N339     N        0.03880    0.82489    0.84120    1.000
    Si340    Si       0.01634    0.88278    0.75382    1.000
    Si341    Si       0.01738    0.90444    0.85411    1.000
    N342     N        0.01491    0.94324    0.82925    1.000
    N343     N        0.02890    0.92264    0.76116    1.000
    Si344    Si       0.99094    0.97854    0.82695    1.000
    N345     N        0.00360    0.98888    0.75205    1.000
    Si346    Si       0.02169    0.79947    0.95223    1.000
    N347     N        0.00173    0.87022    0.95127    1.000
    Si348    Si       0.99964    0.85430    0.91057    1.000
    N349     N        0.02211    0.81548    0.91103    1.000
    N350     N        0.02915    0.87423    0.88463    1.000
    Si351    Si       0.04216    0.86641    0.97020    1.000
    N352     N        0.04058    0.76160    0.94895    1.000
    Si353    Si       0.99932    0.97928    0.96927    1.000
    N354     N        0.02932    0.93592    0.89907    1.000
    Si355    Si       0.98658    0.94856    0.89927    1.000
    N356     N        0.07674    0.07382    0.02652    1.000
    Si357    Si       0.07383    0.03275    0.00859    1.000
    Si358    Si       0.06328    0.11638    0.10291    1.000
    N359     N        0.05687    0.07661    0.09199    1.000
    Si360    Si       0.09551    0.06337    0.10825    1.000
    N361     N        0.05795    0.13019    0.00978    1.000
    Si362    Si       0.09872    0.10543    0.04551    1.000
    N363     N        0.08388    0.13649    0.07220    1.000
    N364     N        0.07826    0.20228    0.09475    1.000
    Si365    Si       0.07766    0.17726    0.05766    1.000
    Si366    Si       0.06460    0.24286    0.08589    1.000
    N367     N        0.09574    0.02406    0.12669    1.000
    Si368    Si       0.06937    0.07525    0.19466    1.000
    N369     N        0.05449    0.11376    0.17978    1.000
    N370     N        0.07088    0.07445    0.23882    1.000
    N371     N        0.09939    0.10357    0.13048    1.000
    N372     N        0.04722    0.04089    0.17995    1.000
    Si373    Si       0.06827    0.00985    0.15897    1.000
    Si374    Si       0.09382    0.12864    0.16596    1.000
    Si375    Si       0.05317    0.23330    0.22198    1.000
    Si376    Si       0.07498    0.24465    0.15592    1.000
    N377     N        0.08262    0.20472    0.23322    1.000
    N378     N        0.09857    0.16745    0.15224    1.000
    Si379    Si       0.06548    0.18259    0.12841    1.000
    Si380    Si       0.08290    0.10699    0.26594    1.000
    N381     N        0.08103    0.07902    0.29980    1.000
    Si382    Si       0.08952    0.09943    0.33636    1.000
    Si383    Si       0.07340    0.04213    0.26917    1.000
    N384     N        0.05591    0.12490    0.35099    1.000
    N385     N        0.09822    0.07003    0.36664    1.000
    N386     N        0.07663    0.00767    0.29772    1.000
    Si387    Si       0.10148    0.22946    0.31080    1.000
    N388     N        0.09409    0.18581    0.29952    1.000
    Si389    Si       0.06652    0.18010    0.26482    1.000
    Si390    Si       0.07785    0.16292    0.33721    1.000
    N391     N        0.06209    0.24258    0.32695    1.000
    N392     N        0.05383    0.13845    0.26785    1.000
    Si393    Si       0.06584    0.04980    0.38779    1.000
    N394     N        0.08728    0.12244    0.42170    1.000
    N395     N        0.07536    0.01528    0.41419    1.000
    Si396    Si       0.07021    0.06550    0.49352    1.000
    N397     N        0.09157    0.18701    0.37161    1.000
    N398     N        0.09993    0.19502    0.44039    1.000
    Si399    Si       0.09890    0.16456    0.41016    1.000
    Si400    Si       0.07416    0.23187    0.44284    1.000
    N401     N        0.06969    0.24064    0.39926    1.000
    N402     N        0.08066    0.09605    0.58046    1.000
    N403     N        0.07979    0.03981    0.52824    1.000
    N404     N        0.05820    0.10571    0.51048    1.000
    Si405    Si       0.07894    0.12245    0.54611    1.000
    Si406    Si       0.05670    0.08315    0.61448    1.000
    Si407    Si       0.04461    0.02187    0.54597    1.000
    N408     N        0.06360    0.22706    0.51976    1.000
    N409     N        0.06134    0.16228    0.55348    1.000
    Si410    Si       0.05414    0.17722    0.59352    1.000
    Si411    Si       0.10246    0.23824    0.50570    1.000
    Si412    Si       0.05029    0.25184    0.59661    1.000
    N413     N        0.07214    0.06924    0.70826    1.000
    Si414    Si       0.08607    0.04412    0.67404    1.000
    Si415    Si       0.05990    0.10574    0.72771    1.000
    N416     N        0.07065    0.04617    0.63088    1.000
    N417     N        0.07618    0.10831    0.64647    1.000
    Si418    Si       0.05607    0.14651    0.64406    1.000
    Si419    Si       0.06041    0.18029    0.70972    1.000
    N420     N        0.08529    0.17400    0.62543    1.000
    N421     N        0.07338    0.14870    0.73412    1.000
    N422     N        0.09740    0.19532    0.69105    1.000
    N423     N        0.06980    0.08865    0.76703    1.000
    N424     N        0.06908    0.03150    0.84279    1.000
    N425     N        0.06654    0.01460    0.76058    1.000
    Si426    Si       0.08394    0.04895    0.74544    1.000
    N427     N        0.07247    0.17536    0.79833    1.000
    N428     N        0.06407    0.21806    0.84085    1.000
    Si429    Si       0.09996    0.20258    0.82109    1.000
    Si430    Si       0.09967    0.16380    0.76667    1.000
    N431     N        0.05104    0.25714    0.79016    1.000
    N432     N        0.08219    0.11374    0.95058    1.000
    N433     N        0.05286    0.05207    0.97389    1.000
    Si434    Si       0.08500    0.00837    0.87769    1.000
    N435     N        0.05950    0.00920    0.91075    1.000
    Si436    Si       0.09491    0.13543    0.98659    1.000
    Si437    Si       0.07209    0.23074    0.88190    1.000
    N438     N        0.07544    0.22673    0.98358    1.000
    N439     N        0.08239    0.14944    0.89152    1.000
    N440     N        0.07448    0.34183    0.03496    1.000
    Si441    Si       0.07464    0.29637    0.02597    1.000
    Si442    Si       0.08529    0.34526    0.07836    1.000
    N443     N        0.08436    0.26989    0.05672    1.000
    Si444    Si       0.09802    0.37143    0.01417    1.000
    N445     N        0.05196    0.33353    0.10424    1.000
    N446     N        0.07644    0.27188    0.11987    1.000
    N447     N        0.08622    0.38441    0.09724    1.000
    N448     N        0.08832    0.44428    0.05553    1.000
    N449     N        0.06656    0.47753    0.00580    1.000
    Si450    Si       0.05380    0.45475    0.08118    1.000
    Si451    Si       0.05312    0.43832    0.01812    1.000
    N452     N        0.06931    0.40076    0.00221    1.000
    N453     N        0.04918    0.49608    0.07187    1.000
    Si454    Si       0.07542    0.36290    0.23931    1.000
    Si455    Si       0.08048    0.30336    0.19896    1.000
    N456     N        0.07759    0.31689    0.23993    1.000
    N457     N        0.09917    0.36811    0.20257    1.000
    N458     N        0.07173    0.26146    0.19330    1.000
    N459     N        0.05343    0.32305    0.17192    1.000
    Si460    Si       0.04794    0.30316    0.13347    1.000
    N461     N        0.08228    0.49318    0.23833    1.000
    N462     N        0.10635    0.43056    0.22118    1.000
    Si463    Si       0.08997    0.46709    0.20460    1.000
    Si464    Si       0.08042    0.40367    0.18827    1.000
    N465     N        0.05721    0.44740    0.18791    1.000
    Si466    Si       0.07492    0.28662    0.27064    1.000
    Si467    Si       0.06619    0.28328    0.34143    1.000
    N468     N        0.06136    0.30770    0.30602    1.000
    N469     N        0.09935    0.29913    0.36355    1.000
    N470     N        0.10863    0.26058    0.28201    1.000
    Si471    Si       0.08743    0.38155    0.29953    1.000
    Si472    Si       0.06126    0.45892    0.32978    1.000
    N473     N        0.08254    0.42135    0.31521    1.000
    N474     N        0.10113    0.47880    0.33341    1.000
    Si475    Si       0.09386    0.33061    0.39193    1.000
    N476     N        0.05298    0.34390    0.40328    1.000
    Si477    Si       0.05316    0.35762    0.44416    1.000
    N478     N        0.09205    0.37811    0.44871    1.000
    N479     N        0.04896    0.32952    0.47795    1.000
    N480     N        0.09454    0.26044    0.46864    1.000
    N481     N        0.09175    0.49482    0.40742    1.000
    N482     N        0.10203    0.42987    0.48215    1.000
    Si483    Si       0.05017    0.48169    0.40737    1.000
    Si484    Si       0.06968    0.41737    0.45710    1.000
    N485     N        0.07841    0.31125    0.54688    1.000
    Si486    Si       0.07760    0.33006    0.50984    1.000
    N487     N        0.08296    0.37390    0.51617    1.000
    N488     N        0.05887    0.37808    0.58129    1.000
    N489     N        0.09166    0.26376    0.59787    1.000
    Si490    Si       0.05425    0.39457    0.54300    1.000
    N491     N        0.07333    0.43360    0.54098    1.000
    Si492    Si       0.06070    0.47396    0.54111    1.000
    N493     N        0.05850    0.48218    0.58385    1.000
    Si494    Si       0.09854    0.39835    0.60268    1.000
    N495     N        0.08351    0.50339    0.51843    1.000
    Si496    Si       0.08187    0.47489    0.62023    1.000
    N497     N        0.10662    0.28327    0.66201    1.000
    Si498    Si       0.10095    0.37279    0.72238    1.000
    Si499    Si       0.09945    0.27274    0.70618    1.000
    N500     N        0.06094    0.33230    0.64248    1.000
    Si501    Si       0.06198    0.29026    0.65728    1.000
    Si502    Si       0.09520    0.35751    0.64980    1.000
    N503     N        0.05841    0.27234    0.69806    1.000
    N504     N        0.06154    0.36681    0.74152    1.000
    N505     N        0.05834    0.45895    0.65497    1.000
    N506     N        0.10323    0.41197    0.70469    1.000
    N507     N        0.08797    0.47336    0.70763    1.000
    Si508    Si       0.07180    0.42189    0.67287    1.000
    Si509    Si       0.08220    0.50524    0.68008    1.000
    N510     N        0.07562    0.39364    0.64174    1.000
    Si511    Si       0.05325    0.46937    0.73709    1.000
    N512     N        0.08281    0.30750    0.81612    1.000
    Si513    Si       0.06341    0.29736    0.77677    1.000
    N514     N        0.08474    0.36999    0.86186    1.000
    Si515    Si       0.07605    0.26388    0.82548    1.000
    N516     N        0.09641    0.28095    0.75056    1.000
    Si517    Si       0.10476    0.33492    0.84198    1.000
    N518     N        0.06520    0.27274    0.86771    1.000
    Si519    Si       0.06056    0.42215    0.80021    1.000
    N520     N        0.06616    0.49586    0.76961    1.000
    Si521    Si       0.08911    0.46702    0.84766    1.000
    N522     N        0.10172    0.41275    0.81018    1.000
    N523     N        0.05208    0.45830    0.82353    1.000
    N524     N        0.05050    0.43129    0.75846    1.000
    N525     N        0.09575    0.26724    0.92569    1.000
    Si526    Si       0.08647    0.29830    0.89757    1.000
    Si527    Si       0.05260    0.36834    0.89185    1.000
    N528     N        0.09556    0.29024    0.98964    1.000
    Si529    Si       0.07228    0.26580    0.96122    1.000
    N530     N        0.05181    0.32473    0.90095    1.000
    Si531    Si       0.04950    0.48515    0.90118    1.000
    Si532    Si       0.08751    0.42733    0.91809    1.000
    N533     N        0.07032    0.46267    0.93471    1.000
    N534     N        0.05997    0.39375    0.92631    1.000
    N535     N        0.09573    0.43572    0.87585    1.000
    Si536    Si       0.08664    0.48761    0.96541    1.000
    N537     N        0.07808    0.49961    0.87220    1.000
    N538     N        0.09349    0.57918    0.05454    1.000
    N539     N        0.09155    0.53708    0.10876    1.000
    Si540    Si       0.04980    0.57909    0.05196    1.000
    N541     N        0.08976    0.63087    0.00657    1.000
    Si542    Si       0.06408    0.51150    0.03415    1.000
    N543     N        0.07517    0.63916    0.06752    1.000
    Si544    Si       0.07831    0.65005    0.10951    1.000
    Si545    Si       0.08815    0.72583    0.10902    1.000
    N546     N        0.06222    0.69015    0.11311    1.000
    Si547    Si       0.05503    0.64536    0.02932    1.000
    N548     N        0.06700    0.75382    0.08468    1.000
    Si549    Si       0.06336    0.56452    0.21924    1.000
    N550     N        0.06228    0.60599    0.21082    1.000
    Si551    Si       0.07682    0.62080    0.17113    1.000
    N552     N        0.05605    0.62047    0.13259    1.000
    N553     N        0.10501    0.55406    0.22022    1.000
    Si554    Si       0.06361    0.70500    0.17260    1.000
    Si555    Si       0.08730    0.73348    0.23977    1.000
    N556     N        0.05722    0.71428    0.21615    1.000
    N557     N        0.08350    0.73740    0.15102    1.000
    N558     N        0.08187    0.66584    0.17846    1.000
    N559     N        0.09717    0.65617    0.24854    1.000
    Si560    Si       0.06608    0.55982    0.28858    1.000
    Si561    Si       0.08061    0.56790    0.35713    1.000
    N562     N        0.06549    0.60140    0.28041    1.000
    Si563    Si       0.06084    0.62022    0.31954    1.000
    N564     N        0.09500    0.60543    0.34198    1.000
    N565     N        0.04978    0.55780    0.32724    1.000
    Si566    Si       0.06387    0.62831    0.24643    1.000
    Si567    Si       0.09744    0.67445    0.28763    1.000
    N568     N        0.08632    0.71702    0.34827    1.000
    N569     N        0.06198    0.66402    0.31289    1.000
    N570     N        0.10023    0.71732    0.27826    1.000
    Si571    Si       0.07177    0.68360    0.37383    1.000
    N572     N        0.08533    0.54420    0.45709    1.000
    N573     N        0.06122    0.57302    0.39662    1.000
    Si574    Si       0.07787    0.57961    0.43521    1.000
    N575     N        0.05751    0.61026    0.46064    1.000
    N576     N        0.07578    0.73092    0.47820    1.000
    Si577    Si       0.07399    0.74715    0.37759    1.000
    N578     N        0.09312    0.66624    0.45141    1.000
    N579     N        0.10571    0.65635    0.38190    1.000
    Si580    Si       0.08237    0.63622    0.48465    1.000
    N581     N        0.06924    0.71473    0.40681    1.000
    Si582    Si       0.09120    0.70787    0.44308    1.000
    Si583    Si       0.08532    0.58953    0.55646    1.000
    N584     N        0.09057    0.57152    0.51954    1.000
    N585     N        0.09984    0.55821    0.58472    1.000
    N586     N        0.09564    0.62945    0.57044    1.000
    Si587    Si       0.07137    0.53840    0.49926    1.000
    Si588    Si       0.08891    0.73992    0.57719    1.000
    Si589    Si       0.07405    0.66554    0.55852    1.000
    N590     N        0.05745    0.64729    0.51991    1.000
    N591     N        0.05136    0.74822    0.56054    1.000
    N592     N        0.10244    0.69966    0.56483    1.000
    N593     N        0.08922    0.73035    0.61957    1.000
    Si594    Si       0.08254    0.55336    0.62359    1.000
    N595     N        0.08924    0.53773    0.70732    1.000
    N596     N        0.09234    0.58287    0.65429    1.000
    N597     N        0.07061    0.62074    0.70327    1.000
    Si598    Si       0.05781    0.60693    0.66361    1.000
    N599     N        0.09276    0.51134    0.63987    1.000
    Si600    Si       0.04951    0.55082    0.70516    1.000
    N601     N        0.06047    0.74921    0.68330    1.000
    N602     N        0.09232    0.67273    0.74034    1.000
    N603     N        0.08341    0.68340    0.67177    1.000
    Si604    Si       0.09854    0.65492    0.70137    1.000
    Si605    Si       0.04748    0.70764    0.68112    1.000
    Si606    Si       0.08221    0.54110    0.85744    1.000
    N607     N        0.05100    0.53796    0.82705    1.000
    N608     N        0.05757    0.62790    0.77126    1.000
    Si609    Si       0.09671    0.64679    0.77447    1.000
    N610     N        0.08683    0.65928    0.81648    1.000
    Si611    Si       0.07550    0.74429    0.85437    1.000
    Si612    Si       0.05490    0.74680    0.78657    1.000
    N613     N        0.09645    0.70694    0.86193    1.000
    Si614    Si       0.05846    0.69926    0.74699    1.000
    N615     N        0.07211    0.74118    0.74744    1.000
    N616     N        0.08600    0.75691    0.81515    1.000
    Si617    Si       0.05742    0.60468    0.88136    1.000
    N618     N        0.07374    0.56538    0.89224    1.000
    Si619    Si       0.05937    0.55086    0.93173    1.000
    N620     N        0.09178    0.52798    0.95025    1.000
    Si621    Si       0.07393    0.61364    0.96901    1.000
    N622     N        0.08701    0.63618    0.88628    1.000
    N623     N        0.07493    0.70652    0.97706    1.000
    Si624    Si       0.05989    0.74702    0.98574    1.000
    Si625    Si       0.05034    0.74671    0.90971    1.000
    N626     N        0.08911    0.76021    0.89538    1.000
    Si627    Si       0.08544    0.87138    0.03393    1.000
    N628     N        0.09467    0.82877    0.02986    1.000
    N629     N        0.05194    0.88449    0.00740    1.000
    N630     N        0.07701    0.89952    0.06637    1.000
    N631     N        0.09256    0.96218    0.10273    1.000
    N632     N        0.09809    0.99851    0.00739    1.000
    Si633    Si       0.05106    0.95590    0.11215    1.000
    Si634    Si       0.07431    0.96303    0.99402    1.000
    Si635    Si       0.08188    0.77882    0.16670    1.000
    N636     N        0.08639    0.81159    0.13849    1.000
    N637     N        0.10267    0.85281    0.22775    1.000
    N638     N        0.04624    0.91490    0.12468    1.000
    N639     N        0.09208    0.98956    0.19094    1.000
    N640     N        0.04529    0.93267    0.18699    1.000
    N641     N        0.10081    0.92245    0.23005    1.000
    Si642    Si       0.06047    0.90036    0.16305    1.000
    Si643    Si       0.07811    0.95265    0.20711    1.000
    Si644    Si       0.06740    0.78823    0.29032    1.000
    N645     N        0.07325    0.83120    0.28568    1.000
    Si646    Si       0.08981    0.85642    0.31759    1.000
    N647     N        0.09098    0.83174    0.35202    1.000
    N648     N        0.09882    0.77512    0.31627    1.000
    N649     N        0.07198    0.77453    0.25050    1.000
    Si650    Si       0.06728    0.85223    0.24998    1.000
    N651     N        0.06487    0.88878    0.33213    1.000
    Si652    Si       0.07845    0.92991    0.33982    1.000
    Si653    Si       0.07216    0.92498    0.26323    1.000
    N654     N        0.06303    0.96354    0.35979    1.000
    N655     N        0.09576    0.94004    0.29680    1.000
    Si656    Si       0.07001    0.00164    0.33903    1.000
    N657     N        0.04638    0.88983    0.25979    1.000
    Si658    Si       0.10726    0.98299    0.28350    1.000
    N659     N        0.05773    0.96516    0.24507    1.000
    Si660    Si       0.06810    0.85422    0.38214    1.000
    N661     N        0.08386    0.84446    0.47129    1.000
    Si662    Si       0.07250    0.80753    0.44926    1.000
    N663     N        0.06182    0.82488    0.41261    1.000
    Si664    Si       0.06871    0.87521    0.44433    1.000
    Si665    Si       0.10131    0.76307    0.48856    1.000
    Si666    Si       0.09019    0.98168    0.39312    1.000
    N667     N        0.05068    0.97035    0.46160    1.000
    Si668    Si       0.08900    0.94828    0.45777    1.000
    N669     N        0.08774    0.88704    0.40443    1.000
    N670     N        0.07926    0.90837    0.47090    1.000
    N671     N        0.06573    0.86141    0.53423    1.000
    Si672    Si       0.09004    0.83295    0.51176    1.000
    N673     N        0.07592    0.79196    0.50955    1.000
    Si674    Si       0.08212    0.95851    0.55771    1.000
    N675     N        0.06647    0.93848    0.59374    1.000
    N676     N        0.09391    0.92391    0.53416    1.000
    Si677    Si       0.06757    0.89840    0.51226    1.000
    N678     N        0.05033    0.97842    0.53468    1.000
    Si679    Si       0.06090    0.86767    0.63892    1.000
    N680     N        0.06546    0.84435    0.67453    1.000
    Si681    Si       0.06761    0.77213    0.71859    1.000
    Si682    Si       0.07613    0.76402    0.64460    1.000
    N683     N        0.10207    0.79881    0.71552    1.000
    Si684    Si       0.10144    0.82258    0.67867    1.000
    Si685    Si       0.10089    0.92913    0.61851    1.000
    Si686    Si       0.08354    0.97745    0.68640    1.000
    N687     N        0.09989    0.88590    0.62731    1.000
    N688     N        0.09397    0.95189    0.65566    1.000
    N689     N        0.07076    0.96020    0.72402    1.000
    N690     N        0.04997    0.00412    0.67650    1.000
    Si691    Si       0.05753    0.85105    0.81305    1.000
    N692     N        0.09959    0.85171    0.82397    1.000
    Si693    Si       0.08740    0.97507    0.75985    1.000
    N694     N        0.07894    0.95792    0.79669    1.000
    N695     N        0.09811    0.97143    0.85959    1.000
    Si696    Si       0.04581    0.92955    0.80085    1.000
    N697     N        0.04630    0.89086    0.82095    1.000
    N698     N        0.09234    0.83525    0.89607    1.000
    Si699    Si       0.08795    0.81257    0.99110    1.000
    Si700    Si       0.10449    0.85789    0.93035    1.000
    N701     N        0.06759    0.87957    0.93855    1.000
    Si702    Si       0.04911    0.83328    0.88303    1.000
    N703     N        0.09455    0.77155    0.99333    1.000
    N704     N        0.05019    0.82458    0.97465    1.000
    Si705    Si       0.06157    0.90371    0.90189    1.000
    N706     N        0.04300    0.96591    0.96526    1.000
    Si707    Si       0.05306    0.96676    0.92243    1.000
    N708     N        0.09523    0.89746    0.87410    1.000
    N709     N        0.09102    0.94170    0.91870    1.000
    N710     N        0.12334    0.08173    0.07710    1.000
    Si711    Si       0.13941    0.10485    0.11141    1.000
    N712     N        0.12408    0.11597    0.01161    1.000
    Si713    Si       0.15281    0.05275    0.06144    1.000
    N714     N        0.13789    0.01366    0.06979    1.000
    N715     N        0.16012    0.05744    0.01846    1.000
    Si716    Si       0.16150    0.09760    0.00213    1.000
    N717     N        0.13886    0.23997    0.00531    1.000
    Si718    Si       0.14200    0.22118    0.04546    1.000
    N719     N        0.14028    0.24640    0.07913    1.000
    N720     N        0.11002    0.19319    0.03555    1.000
    N721     N        0.15962    0.07925    0.13995    1.000
    Si722    Si       0.11707    0.02097    0.20882    1.000
    Si723    Si       0.14313    0.08484    0.18084    1.000
    N724     N        0.12510    0.12227    0.19413    1.000
    N725     N        0.10914    0.05693    0.18846    1.000
    N726     N        0.16204    0.01231    0.19942    1.000
    N727     N        0.16411    0.20107    0.12640    1.000
    N728     N        0.15246    0.24588    0.23626    1.000
    Si729    Si       0.14009    0.14476    0.22866    1.000
    N730     N        0.14789    0.18978    0.19464    1.000
    N731     N        0.11573    0.23459    0.15671    1.000
    Si732    Si       0.12762    0.21243    0.22779    1.000
    Si733    Si       0.13230    0.19487    0.15515    1.000
    Si734    Si       0.13020    0.04104    0.35855    1.000
    N735     N        0.15531    0.05471    0.32253    1.000
    Si736    Si       0.14903    0.03311    0.28329    1.000
    N737     N        0.11613    0.02474    0.25275    1.000
    N738     N        0.12192    0.12627    0.26370    1.000
    N739     N        0.11460    0.13700    0.33345    1.000
    Si740    Si       0.14788    0.15558    0.35795    1.000
    Si741    Si       0.12932    0.16076    0.29421    1.000
    N742     N        0.12956    0.23704    0.34378    1.000
    N743     N        0.14200    0.18363    0.25748    1.000
    Si744    Si       0.14735    0.05084    0.48130    1.000
    Si745    Si       0.11624    0.10490    0.44715    1.000
    N746     N        0.14951    0.08977    0.42460    1.000
    N747     N        0.10887    0.07039    0.47371    1.000
    Si748    Si       0.10801    0.22702    0.38079    1.000
    N749     N        0.13712    0.24696    0.40721    1.000
    N750     N        0.13141    0.14071    0.47076    1.000
    Si751    Si       0.13484    0.18288    0.46349    1.000
    N752     N        0.14098    0.15717    0.40214    1.000
    N753     N        0.14171    0.05737    0.56910    1.000
    Si754    Si       0.12499    0.09439    0.58030    1.000
    Si755    Si       0.11948    0.02816    0.54664    1.000
    N756     N        0.14227    0.11000    0.61589    1.000
    N757     N        0.14540    0.01934    0.51125    1.000
    N758     N        0.12277    0.12128    0.54327    1.000
    Si759    Si       0.14657    0.12335    0.50701    1.000
    Si760    Si       0.15872    0.22541    0.52954    1.000
    N761     N        0.13104    0.20534    0.50199    1.000
    N762     N        0.12733    0.25714    0.53617    1.000
    Si763    Si       0.14651    0.02836    0.68065    1.000
    N764     N        0.12783    0.06519    0.66840    1.000
    Si765    Si       0.11910    0.10378    0.65268    1.000
    N766     N        0.11035    0.01075    0.69104    1.000
    N767     N        0.16505    0.18939    0.70651    1.000
    Si768    Si       0.11667    0.17543    0.65501    1.000
    N769     N        0.16040    0.24739    0.62523    1.000
    N770     N        0.13602    0.24963    0.71445    1.000
    N771     N        0.15222    0.17966    0.62862    1.000
    N772     N        0.12894    0.13877    0.67781    1.000
    Si773    Si       0.12802    0.20657    0.71582    1.000
    N774     N        0.12627    0.05552    0.75882    1.000
    Si775    Si       0.13121    0.12719    0.82543    1.000
    N776     N        0.11587    0.08621    0.82435    1.000
    N777     N        0.13366    0.01354    0.82095    1.000
    Si778    Si       0.15099    0.02035    0.74966    1.000
    Si779    Si       0.11114    0.09061    0.78018    1.000
    Si780    Si       0.10973    0.04555    0.83814    1.000
    N781     N        0.12877    0.13034    0.78067    1.000
    N782     N        0.16340    0.12076    0.85466    1.000
    N783     N        0.12115    0.16786    0.83812    1.000
    N784     N        0.11345    0.24394    0.81400    1.000
    Si785    Si       0.11716    0.24772    0.76627    1.000
    N786     N        0.11436    0.20471    0.75821    1.000
    Si787    Si       0.15671    0.25750    0.81865    1.000
    Si788    Si       0.10888    0.12966    0.92210    1.000
    N789     N        0.11927    0.03548    0.88244    1.000
    N790     N        0.15098    0.03340    0.94841    1.000
    Si791    Si       0.14461    0.05381    0.91053    1.000
    N792     N        0.13529    0.09673    0.91215    1.000
    Si793    Si       0.11116    0.20707    0.99258    1.000
    Si794    Si       0.13312    0.24256    0.91490    1.000
    N795     N        0.15384    0.21964    0.94555    1.000
    N796     N        0.14287    0.15785    0.91081    1.000
    N797     N        0.11162    0.21483    0.88769    1.000
    Si798    Si       0.15773    0.17702    0.94813    1.000
    N799     N        0.11909    0.16924    0.97042    1.000
    Si800    Si       0.11729    0.17306    0.88047    1.000
    N801     N        0.12194    0.32173    0.07968    1.000
    Si802    Si       0.15287    0.34418    0.05606    1.000
    Si803    Si       0.11433    0.28047    0.09079    1.000
    N804     N        0.16041    0.32205    0.01984    1.000
    N805     N        0.13224    0.38096    0.04185    1.000
    Si806    Si       0.16300    0.32431    0.12200    1.000
    N807     N        0.14983    0.45180    0.04159    1.000
    N808     N        0.14399    0.42233    0.10332    1.000
    Si809    Si       0.12745    0.42102    0.06284    1.000
    Si810    Si       0.11141    0.47227    0.02928    1.000
    N811     N        0.14592    0.28328    0.12581    1.000
    Si812    Si       0.14038    0.27059    0.16882    1.000
    N813     N        0.13719    0.35500    0.14035    1.000
    Si814    Si       0.13443    0.34722    0.18456    1.000
    N815     N        0.12315    0.30552    0.18596    1.000
    Si816    Si       0.14019    0.43423    0.18678    1.000
    N817     N        0.12381    0.47457    0.17756    1.000
    N818     N        0.11124    0.41393    0.15993    1.000
    Si819    Si       0.15603    0.49913    0.16019    1.000
    Si820    Si       0.11875    0.39063    0.12347    1.000
    Si821    Si       0.14226    0.35671    0.28497    1.000
    Si822    Si       0.14698    0.27342    0.27180    1.000
    N823     N        0.12053    0.36472    0.32161    1.000
    N824     N        0.14372    0.31614    0.27382    1.000
    Si825    Si       0.14605    0.37920    0.35622    1.000
    N826     N        0.11102    0.38135    0.26311    1.000
    Si827    Si       0.12166    0.44432    0.32125    1.000
    N828     N        0.14347    0.44656    0.28401    1.000
    N829     N        0.14575    0.42238    0.34914    1.000
    Si830    Si       0.13607    0.41826    0.25331    1.000
    N831     N        0.16447    0.50328    0.31064    1.000
    Si832    Si       0.16741    0.48104    0.27437    1.000
    Si833    Si       0.11277    0.49979    0.36979    1.000
    Si834    Si       0.12144    0.36644    0.48342    1.000
    Si835    Si       0.12630    0.29262    0.45955    1.000
    Si836    Si       0.13646    0.28730    0.38640    1.000
    N837     N        0.15478    0.36998    0.45312    1.000
    N838     N        0.12265    0.30900    0.42053    1.000
    N839     N        0.11643    0.32324    0.48907    1.000
    N840     N        0.11517    0.36694    0.38633    1.000
    N841     N        0.16757    0.27526    0.46073    1.000
    Si842    Si       0.13582    0.44820    0.46244    1.000
    N843     N        0.15255    0.48412    0.37898    1.000
    Si844    Si       0.15981    0.43897    0.39026    1.000
    Si845    Si       0.12752    0.38817    0.42194    1.000
    N846     N        0.12949    0.43189    0.42227    1.000
    N847     N        0.12815    0.48916    0.47016    1.000
    N848     N        0.13689    0.30230    0.59454    1.000
    Si849    Si       0.15425    0.34017    0.60526    1.000
    N850     N        0.11892    0.36100    0.61547    1.000
    Si851    Si       0.10925    0.28564    0.56461    1.000
    N852     N        0.14556    0.39097    0.50970    1.000
    Si853    Si       0.14900    0.44401    0.57859    1.000
    N854     N        0.13608    0.45730    0.53764    1.000
    N855     N        0.12668    0.40277    0.56850    1.000
    Si856    Si       0.12874    0.49466    0.51453    1.000
    Si857    Si       0.11189    0.41835    0.52650    1.000
    N858     N        0.11340    0.44413    0.61391    1.000
    Si859    Si       0.12683    0.27261    0.62635    1.000
    N860     N        0.16044    0.31297    0.71804    1.000
    Si861    Si       0.15299    0.33802    0.68364    1.000
    N862     N        0.11239    0.35023    0.68686    1.000
    Si863    Si       0.12403    0.45139    0.71343    1.000
    N864     N        0.15490    0.45349    0.68167    1.000
    Si865    Si       0.14942    0.44526    0.63970    1.000
    N866     N        0.13594    0.35763    0.82101    1.000
    N867     N        0.13107    0.36631    0.75098    1.000
    N868     N        0.15913    0.25932    0.77447    1.000
    Si869    Si       0.12880    0.38513    0.78865    1.000
    N870     N        0.13358    0.46981    0.75222    1.000
    N871     N        0.12139    0.48180    0.82046    1.000
    N872     N        0.15843    0.40985    0.85799    1.000
    Si873    Si       0.11389    0.40243    0.85309    1.000
    Si874    Si       0.16304    0.48007    0.82892    1.000
    Si875    Si       0.10929    0.49420    0.77913    1.000
    Si876    Si       0.16128    0.30001    0.87512    1.000
    N877     N        0.12108    0.31465    0.87689    1.000
    Si878    Si       0.13284    0.31109    0.98500    1.000
    N879     N        0.11889    0.35516    0.98084    1.000
    N880     N        0.16018    0.28801    0.96014    1.000
    N881     N        0.16889    0.47398    0.87250    1.000
    N882     N        0.12442    0.41618    0.93878    1.000
    N883     N        0.12391    0.47617    0.98735    1.000
    Si884    Si       0.15957    0.50052    0.97958    1.000
    Si885    Si       0.15931    0.44341    0.94449    1.000
    Si886    Si       0.14493    0.38751    0.96653    1.000
    N887     N        0.14551    0.56600    0.09539    1.000
    N888     N        0.14149    0.59856    0.01721    1.000
    Si889    Si       0.11494    0.54610    0.07238    1.000
    Si890    Si       0.11133    0.61898    0.04573    1.000
    N891     N        0.10867    0.51298    0.04426    1.000
    N892     N        0.13770    0.65433    0.05507    1.000
    N893     N        0.12546    0.71488    0.09032    1.000
    Si894    Si       0.14480    0.67378    0.09151    1.000
    Si895    Si       0.14944    0.75067    0.08204    1.000
    N896     N        0.13877    0.71444    0.00658    1.000
    Si897    Si       0.13375    0.75641    0.00799    1.000
    Si898    Si       0.16000    0.67857    0.02501    1.000
    N899     N        0.12129    0.65201    0.12163    1.000
    Si900    Si       0.11855    0.56482    0.13032    1.000
    N901     N        0.13626    0.53856    0.15937    1.000
    Si902    Si       0.13200    0.56770    0.19076    1.000
    N903     N        0.11442    0.59784    0.16370    1.000
    Si904    Si       0.11231    0.52212    0.24865    1.000
    Si905    Si       0.14646    0.75059    0.20346    1.000
    N906     N        0.14648    0.66026    0.19368    1.000
    N907     N        0.12263    0.71709    0.22181    1.000
    Si908    Si       0.14091    0.63626    0.15714    1.000
    Si909    Si       0.11090    0.67687    0.21156    1.000
    Si910    Si       0.13510    0.53433    0.31840    1.000
    N911     N        0.11324    0.54018    0.35519    1.000
    N912     N        0.10477    0.54079    0.28919    1.000
    N913     N        0.15268    0.51001    0.24741    1.000
    Si914    Si       0.12475    0.63605    0.34816    1.000
    N915     N        0.13086    0.66003    0.31238    1.000
    Si916    Si       0.14625    0.72027    0.26133    1.000
    N917     N        0.15256    0.73142    0.30379    1.000
    Si918    Si       0.11194    0.73252    0.31685    1.000
    Si919    Si       0.11327    0.51509    0.43860    1.000
    N920     N        0.16168    0.57541    0.48241    1.000
    N921     N        0.11526    0.60289    0.43035    1.000
    N922     N        0.14723    0.53760    0.42422    1.000
    Si923    Si       0.15214    0.57682    0.43905    1.000
    N924     N        0.12471    0.62948    0.50071    1.000
    Si925    Si       0.11678    0.64453    0.42175    1.000
    N926     N        0.13267    0.72356    0.43699    1.000
    Si927    Si       0.16240    0.69393    0.45103    1.000
    N928     N        0.15783    0.65850    0.42700    1.000
    N929     N        0.16062    0.69023    0.49513    1.000
    Si930    Si       0.14155    0.55140    0.56738    1.000
    N931     N        0.14511    0.59064    0.55006    1.000
    N932     N        0.15087    0.52571    0.53435    1.000
    Si933    Si       0.12840    0.58827    0.50957    1.000
    Si934    Si       0.13935    0.62466    0.57743    1.000
    N935     N        0.15555    0.61320    0.61506    1.000
    Si936    Si       0.14362    0.69309    0.57984    1.000
    N937     N        0.15790    0.65903    0.55797    1.000
    N938     N        0.13236    0.75285    0.51615    1.000
    Si939    Si       0.16173    0.64899    0.51380    1.000
    N940     N        0.13971    0.68005    0.62084    1.000
    Si941    Si       0.12420    0.59292    0.68217    1.000
    N942     N        0.14196    0.58071    0.72172    1.000
    Si943    Si       0.12309    0.54279    0.73393    1.000
    N944     N        0.15726    0.52019    0.71820    1.000
    N945     N        0.15745    0.56848    0.66406    1.000
    Si946    Si       0.16372    0.72933    0.70467    1.000
    N947     N        0.13126    0.63956    0.67896    1.000
    N948     N        0.14735    0.74730    0.74073    1.000
    Si949    Si       0.11177    0.70429    0.64569    1.000
    Si950    Si       0.15707    0.64636    0.64350    1.000
    N951     N        0.13590    0.72340    0.67337    1.000
    Si952    Si       0.14707    0.55024    0.81062    1.000
    N953     N        0.11862    0.55958    0.84308    1.000
    N954     N        0.12206    0.53421    0.77567    1.000
    Si955    Si       0.16147    0.60431    0.75299    1.000
    N956     N        0.13749    0.63375    0.77374    1.000
    N957     N        0.14912    0.65308    0.83805    1.000
    N958     N        0.16163    0.74929    0.81029    1.000
    Si959    Si       0.10646    0.66451    0.85658    1.000
    Si960    Si       0.14488    0.57721    0.87593    1.000
    Si961    Si       0.12566    0.55595    0.94655    1.000
    N962     N        0.14262    0.54679    0.90682    1.000
    N963     N        0.15411    0.54271    0.97690    1.000
    N964     N        0.15040    0.61332    0.89759    1.000
    N965     N        0.11164    0.59965    0.95100    1.000
    Si966    Si       0.13152    0.62842    0.98644    1.000
    Si967    Si       0.16515    0.75613    0.93867    1.000
    Si968    Si       0.11995    0.63841    0.91789    1.000
    N969     N        0.11886    0.65960    0.95579    1.000
    Si970    Si       0.12472    0.71673    0.89301    1.000
    N971     N        0.13467    0.67488    0.89451    1.000
    Si972    Si       0.11790    0.70148    0.96990    1.000
    N973     N        0.13206    0.72631    0.93669    1.000
    N974     N        0.16276    0.73255    0.87861    1.000
    N975     N        0.13513    0.83931    0.08477    1.000
    Si976    Si       0.13379    0.81672    0.04573    1.000
    N977     N        0.13935    0.77272    0.04693    1.000
    Si978    Si       0.14899    0.87710    0.07128    1.000
    N979     N        0.14166    0.77914    0.11640    1.000
    N980     N        0.12869    0.88236    0.03391    1.000
    N981     N        0.12787    0.94889    0.04891    1.000
    N982     N        0.13499    0.90195    0.10261    1.000
    Si983    Si       0.13270    0.92019    0.01623    1.000
    Si984    Si       0.12183    0.99250    0.10751    1.000
    Si985    Si       0.13242    0.98905    0.03390    1.000
    Si986    Si       0.10788    0.92740    0.08119    1.000
    Si987    Si       0.12684    0.81871    0.12157    1.000
    N988     N        0.14650    0.84335    0.15088    1.000
    Si989    Si       0.14187    0.83515    0.22710    1.000
    N990     N        0.11475    0.77830    0.19570    1.000
    N991     N        0.15834    0.87546    0.21512    1.000
    Si992    Si       0.11865    0.88992    0.20798    1.000
    Si993    Si       0.13751    0.88584    0.14326    1.000
    N994     N        0.15289    0.97690    0.13478    1.000
    N995     N        0.10485    0.89888    0.16852    1.000
    N996     N        0.12953    0.86864    0.30649    1.000
    N997     N        0.15141    0.81472    0.26666    1.000
    Si998    Si       0.11641    0.79911    0.34960    1.000
    N999     N        0.15761    0.80881    0.34023    1.000
    Si1000   Si       0.16008    0.83640    0.30333    1.000
    Si1001   Si       0.13002    0.91402    0.31051    1.000
    N1002    N        0.14782    0.99168    0.29742    1.000
    N1003    N        0.11865    0.92394    0.35372    1.000
    N1004    N        0.10865    0.00368    0.36081    1.000
    Si1005   Si       0.13102    0.76411    0.42010    1.000
    N1006    N        0.10973    0.78512    0.45165    1.000
    N1007    N        0.10910    0.76998    0.38348    1.000
    Si1008   Si       0.11940    0.91488    0.39675    1.000
    N1009    N        0.12445    0.95680    0.48175    1.000
    N1010    N        0.16226    0.90469    0.39790    1.000
    N1011    N        0.10389    0.94979    0.41727    1.000
    N1012    N        0.12767    0.82792    0.53138    1.000
    Si1013   Si       0.13496    0.78711    0.54310    1.000
    N1014    N        0.11488    0.77625    0.57999    1.000
    Si1015   Si       0.13575    0.79488    0.61437    1.000
    N1016    N        0.14882    0.83589    0.60969    1.000
    Si1017   Si       0.15895    0.85549    0.53404    1.000
    N1018    N        0.14771    0.88699    0.50259    1.000
    N1019    N        0.11354    0.98779    0.56254    1.000
    Si1020   Si       0.15419    0.97178    0.57185    1.000
    N1021    N        0.14041    0.94376    0.60457    1.000
    Si1022   Si       0.12895    0.92572    0.51196    1.000
    N1023    N        0.15816    0.94763    0.53516    1.000
    Si1024   Si       0.15656    0.97954    0.50226    1.000
    Si1025   Si       0.15617    0.85473    0.71947    1.000
    N1026    N        0.14005    0.84799    0.67976    1.000
    Si1027   Si       0.13717    0.86422    0.63931    1.000
    Si1028   Si       0.13332    0.78904    0.74197    1.000
    N1029    N        0.10567    0.79439    0.64633    1.000
    Si1030   Si       0.13019    0.84527    0.79361    1.000
    N1031    N        0.12648    0.80248    0.78276    1.000
    N1032    N        0.13174    0.79794    0.85264    1.000
    Si1033   Si       0.12673    0.77463    0.81486    1.000
    N1034    N        0.13181    0.86396    0.75341    1.000
    Si1035   Si       0.11371    0.86009    0.86384    1.000
    N1036    N        0.14704    0.94875    0.80888    1.000
    Si1037   Si       0.11326    0.97334    0.81909    1.000
    N1038    N        0.12753    0.98315    0.75298    1.000
    Si1039   Si       0.16176    0.95865    0.76902    1.000
    N1040    N        0.15348    0.85258    0.88179    1.000
    N1041    N        0.14893    0.79154    0.91840    1.000
    Si1042   Si       0.15322    0.81375    0.95640    1.000
    Si1043   Si       0.11457    0.79678    0.89116    1.000
    N1044    N        0.11536    0.83133    0.96393    1.000
    N1045    N        0.16547    0.77632    0.97826    1.000
    N1046    N        0.15685    0.95451    0.94046    1.000
    N1047    N        0.15697    0.93315    0.87609    1.000
    Si1048   Si       0.12241    0.92869    0.94711    1.000
    N1049    N        0.13571    0.89005    0.93471    1.000
    Si1050   Si       0.11439    0.93622    0.87905    1.000
    N1051    N        0.10440    0.93405    0.98670    1.000
    N1052    N        0.19000    0.06505    0.08103    1.000
    N1053    N        0.18514    0.11998    0.03088    1.000
    Si1054   Si       0.21153    0.09383    0.05679    1.000
    N1055    N        0.17765    0.19654    0.03921    1.000
    Si1056   Si       0.19155    0.16159    0.01672    1.000
    Si1057   Si       0.21350    0.21811    0.02973    1.000
    N1058    N        0.16630    0.13680    0.10519    1.000
    N1059    N        0.20660    0.25491    0.11606    1.000
    Si1060   Si       0.19231    0.16751    0.12226    1.000
    Si1061   Si       0.16400    0.24247    0.11418    1.000
    Si1062   Si       0.19572    0.06181    0.12376    1.000
    Si1063   Si       0.18805    0.03920    0.22096    1.000
    Si1064   Si       0.20520    0.10648    0.22461    1.000
    N1065    N        0.20182    0.02111    0.13395    1.000
    N1066    N        0.17535    0.07952    0.21018    1.000
    Si1067   Si       0.19039    0.17752    0.19694    1.000
    N1068    N        0.21542    0.20692    0.21438    1.000
    Si1069   Si       0.19009    0.24425    0.21660    1.000
    N1070    N        0.21170    0.16334    0.16039    1.000
    N1071    N        0.18230    0.14226    0.22154    1.000
    Si1072   Si       0.19274    0.05935    0.34711    1.000
    N1073    N        0.18762    0.04619    0.26457    1.000
    N1074    N        0.21562    0.08686    0.32165    1.000
    N1075    N        0.21618    0.02343    0.34648    1.000
    Si1076   Si       0.21679    0.12285    0.34445    1.000
    Si1077   Si       0.22128    0.06853    0.28260    1.000
    N1078    N        0.18095    0.12568    0.36851    1.000
    N1079    N        0.20527    0.22244    0.34674    1.000
    Si1080   Si       0.20481    0.19152    0.31531    1.000
    Si1081   Si       0.17256    0.25091    0.34013    1.000
    Si1082   Si       0.21862    0.25527    0.28315    1.000
    N1083    N        0.16356    0.17402    0.32052    1.000
    N1084    N        0.17888    0.26152    0.29879    1.000
    N1085    N        0.21376    0.06987    0.39365    1.000
    Si1086   Si       0.20323    0.11768    0.48464    1.000
    Si1087   Si       0.17770    0.05864    0.41519    1.000
    N1088    N        0.17636    0.03394    0.45177    1.000
    Si1089   Si       0.17359    0.12494    0.41074    1.000
    N1090    N        0.16884    0.08849    0.49136    1.000
    N1091    N        0.16428    0.03523    0.38155    1.000
    N1092    N        0.17124    0.19948    0.44762    1.000
    N1093    N        0.20733    0.25100    0.41015    1.000
    Si1094   Si       0.20872    0.17670    0.44188    1.000
    N1095    N        0.19966    0.13357    0.44294    1.000
    Si1096   Si       0.16964    0.23988    0.43371    1.000
    Si1097   Si       0.18642    0.04469    0.57311    1.000
    N1098    N        0.21099    0.05404    0.60898    1.000
    N1099    N        0.21197    0.07396    0.55120    1.000
    Si1100   Si       0.16878    0.20875    0.60470    1.000
    N1101    N        0.19939    0.13714    0.58814    1.000
    N1102    N        0.18288    0.14394    0.51697    1.000
    N1103    N        0.21339    0.21867    0.60162    1.000
    Si1104   Si       0.19708    0.16680    0.55347    1.000
    N1105    N        0.19751    0.24038    0.51332    1.000
    N1106    N        0.16637    0.19660    0.56297    1.000
    Si1107   Si       0.17179    0.14178    0.61981    1.000
    Si1108   Si       0.21432    0.02745    0.64296    1.000
    Si1109   Si       0.21538    0.03616    0.71653    1.000
    N1110    N        0.17353    0.02757    0.71465    1.000
    N1111    N        0.18802    0.12616    0.72864    1.000
    N1112    N        0.17343    0.01485    0.65112    1.000
    Si1113   Si       0.16883    0.14642    0.69516    1.000
    Si1114   Si       0.19905    0.21685    0.69994    1.000
    Si1115   Si       0.20221    0.25379    0.62604    1.000
    N1116    N        0.20527    0.25455    0.72275    1.000
    N1117    N        0.19352    0.14160    0.65991    1.000
    N1118    N        0.21520    0.24100    0.66503    1.000
    N1119    N        0.20080    0.04647    0.82031    1.000
    N1120    N        0.19039    0.10885    0.79447    1.000
    Si1121   Si       0.20113    0.12374    0.83420    1.000
    Si1122   Si       0.21404    0.05560    0.86243    1.000
    Si1123   Si       0.21569    0.07128    0.78844    1.000
    Si1124   Si       0.17646    0.01106    0.81535    1.000
    N1125    N        0.21753    0.07120    0.74380    1.000
    Si1126   Si       0.17101    0.13531    0.76885    1.000
    N1127    N        0.17954    0.22638    0.83500    1.000
    Si1128   Si       0.20216    0.19505    0.81587    1.000
    N1129    N        0.18663    0.17396    0.77983    1.000
    N1130    N        0.21609    0.16287    0.84386    1.000
    Si1131   Si       0.17216    0.02961    0.98709    1.000
    N1132    N        0.18454    0.09328    0.96578    1.000
    N1133    N        0.21272    0.03050    0.96902    1.000
    Si1134   Si       0.20191    0.06033    0.93871    1.000
    N1135    N        0.18688    0.05607    0.89723    1.000
    Si1136   Si       0.21645    0.12218    0.95344    1.000
    Si1137   Si       0.16697    0.12299    0.89742    1.000
    Si1138   Si       0.19969    0.23858    0.87415    1.000
    N1139    N        0.20515    0.13683    0.91302    1.000
    N1140    N        0.21990    0.20537    0.89769    1.000
    N1141    N        0.18822    0.15791    0.97242    1.000
    N1142    N        0.20659    0.24413    0.99601    1.000
    Si1143   Si       0.16805    0.24806    0.97511    1.000
    N1144    N        0.16408    0.25958    0.89081    1.000
    N1145    N        0.18357    0.34209    0.08713    1.000
    N1146    N        0.21856    0.35996    0.02897    1.000
    Si1147   Si       0.19679    0.33953    0.99919    1.000
    Si1148   Si       0.21436    0.50272    0.10981    1.000
    Si1149   Si       0.18325    0.44919    0.01492    1.000
    N1150    N        0.21557    0.42750    0.10341    1.000
    N1151    N        0.21190    0.48723    0.06793    1.000
    N1152    N        0.19727    0.48809    0.00232    1.000
    N1153    N        0.21905    0.42963    0.03112    1.000
    Si1154   Si       0.21033    0.27763    0.15071    1.000
    N1155    N        0.17255    0.35918    0.20226    1.000
    Si1156   Si       0.21041    0.34600    0.18119    1.000
    N1157    N        0.19782    0.31969    0.14964    1.000
    N1158    N        0.22079    0.26478    0.24190    1.000
    N1159    N        0.18078    0.25952    0.17752    1.000
    Si1160   Si       0.17750    0.44077    0.12011    1.000
    N1161    N        0.17498    0.43054    0.16026    1.000
    N1162    N        0.17644    0.48503    0.12616    1.000
    N1163    N        0.16764    0.42927    0.22215    1.000
    N1164    N        0.18575    0.49388    0.19111    1.000
    Si1165   Si       0.18614    0.38756    0.23177    1.000
    Si1166   Si       0.20089    0.45534    0.21172    1.000
    N1167    N        0.18086    0.35751    0.33868    1.000
    Si1168   Si       0.19707    0.32532    0.36388    1.000
    N1169    N        0.17112    0.29036    0.36100    1.000
    Si1170   Si       0.20407    0.37564    0.30583    1.000
    N1171    N        0.17320    0.38438    0.27357    1.000
    N1172    N        0.20625    0.47337    0.25330    1.000
    N1173    N        0.21589    0.51130    0.35582    1.000
    Si1174   Si       0.22669    0.28958    0.42373    1.000
    Si1175   Si       0.18779    0.36237    0.42530    1.000
    N1176    N        0.20787    0.32622    0.40863    1.000
    N1177    N        0.21534    0.38152    0.45344    1.000
    Si1178   Si       0.19977    0.27844    0.49059    1.000
    N1179    N        0.16984    0.39218    0.39761    1.000
    N1180    N        0.20090    0.50666    0.48992    1.000
    Si1181   Si       0.19107    0.50233    0.39294    1.000
    N1182    N        0.19920    0.45780    0.40417    1.000
    N1183    N        0.17796    0.43732    0.47390    1.000
    Si1184   Si       0.20807    0.46451    0.48356    1.000
    Si1185   Si       0.18365    0.39265    0.48410    1.000
    Si1186   Si       0.20586    0.34129    0.54549    1.000
    N1187    N        0.19322    0.30949    0.51809    1.000
    N1188    N        0.17635    0.35628    0.57297    1.000
    N1189    N        0.21939    0.29050    0.61233    1.000
    N1190    N        0.20801    0.37857    0.52087    1.000
    N1191    N        0.18618    0.42601    0.56504    1.000
    N1192    N        0.20866    0.49623    0.55885    1.000
    Si1193   Si       0.22084    0.45469    0.55570    1.000
    Si1194   Si       0.16646    0.39119    0.54906    1.000
    Si1195   Si       0.19144    0.50763    0.59856    1.000
    N1196    N        0.16926    0.47157    0.60957    1.000
    Si1197   Si       0.21297    0.32226    0.64070    1.000
    N1198    N        0.17758    0.37034    0.69957    1.000
    Si1199   Si       0.17014    0.35187    0.74015    1.000
    N1200    N        0.17011    0.33187    0.64571    1.000
    Si1201   Si       0.16786    0.27274    0.73395    1.000
    N1202    N        0.22707    0.30562    0.67778    1.000
    N1203    N        0.21740    0.49437    0.69230    1.000
    N1204    N        0.22467    0.42237    0.68274    1.000
    Si1205   Si       0.19884    0.39087    0.66607    1.000
    Si1206   Si       0.19838    0.45411    0.69501    1.000
    N1207    N        0.16950    0.40767    0.63728    1.000
    N1208    N        0.19098    0.45004    0.73810    1.000
    N1209    N        0.20368    0.35369    0.83857    1.000
    Si1210   Si       0.19632    0.32280    0.80851    1.000
    N1211    N        0.20182    0.34543    0.77000    1.000
    N1212    N        0.16933    0.29614    0.83343    1.000
    Si1213   Si       0.17305    0.38162    0.82964    1.000
    N1214    N        0.19107    0.46233    0.80208    1.000
    Si1215   Si       0.19617    0.42931    0.77519    1.000
    N1216    N        0.16874    0.40129    0.79126    1.000
    Si1217   Si       0.22020    0.49308    0.79793    1.000
    Si1218   Si       0.17098    0.48918    0.74746    1.000
    N1219    N        0.22010    0.31239    0.97444    1.000
    Si1220   Si       0.18879    0.31729    0.94280    1.000
    N1221    N        0.19179    0.31902    0.90035    1.000
    N1222    N        0.18177    0.36104    0.96035    1.000
    Si1223   Si       0.21995    0.34335    0.87829    1.000
    N1224    N        0.16337    0.48467    0.93784    1.000
    N1225    N        0.19102    0.42399    0.92205    1.000
    Si1226   Si       0.18855    0.43421    0.87962    1.000
    N1227    N        0.16796    0.42276    0.98229    1.000
    Si1228   Si       0.20997    0.39110    0.94409    1.000
    N1229    N        0.20633    0.60909    0.08577    1.000
    Si1230   Si       0.18613    0.56784    0.08202    1.000
    N1231    N        0.18320    0.55019    0.04303    1.000
    Si1232   Si       0.20919    0.51621    0.03618    1.000
    N1233    N        0.21730    0.54568    0.10391    1.000
    Si1234   Si       0.17012    0.56973    0.00648    1.000
    Si1235   Si       0.20760    0.70252    0.09117    1.000
    N1236    N        0.19136    0.69731    0.04946    1.000
    N1237    N        0.18689    0.73734    0.10426    1.000
    N1238    N        0.18599    0.66926    0.10870    1.000
    Si1239   Si       0.20398    0.63194    0.12190    1.000
    Si1240   Si       0.21893    0.72047    0.02432    1.000
    Si1241   Si       0.18508    0.52526    0.21917    1.000
    Si1242   Si       0.19772    0.59756    0.19220    1.000
    N1243    N        0.18175    0.61550    0.15517    1.000
    N1244    N        0.17334    0.56492    0.20681    1.000
    N1245    N        0.19711    0.62760    0.22199    1.000
    N1246    N        0.17734    0.74698    0.17421    1.000
    N1247    N        0.17051    0.75096    0.24083    1.000
    Si1248   Si       0.18293    0.66812    0.21769    1.000
    Si1249   Si       0.21690    0.73274    0.19001    1.000
    N1250    N        0.21481    0.69086    0.19930    1.000
    Si1251   Si       0.18930    0.60179    0.32999    1.000
    Si1252   Si       0.19825    0.52881    0.32115    1.000
    N1253    N        0.17119    0.56202    0.32343    1.000
    N1254    N        0.19380    0.62465    0.29348    1.000
    Si1255   Si       0.21915    0.62718    0.25995    1.000
    N1256    N        0.16610    0.62490    0.35908    1.000
    N1257    N        0.17120    0.68176    0.25969    1.000
    Si1258   Si       0.19554    0.72827    0.31506    1.000
    N1259    N        0.19671    0.68529    0.32915    1.000
    Si1260   Si       0.17315    0.66305    0.30005    1.000
    Si1261   Si       0.20164    0.58591    0.49608    1.000
    N1262    N        0.21483    0.52725    0.42125    1.000
    N1263    N        0.18463    0.59469    0.41648    1.000
    Si1264   Si       0.22116    0.57059    0.42272    1.000
    N1265    N        0.20196    0.71277    0.44377    1.000
    Si1266   Si       0.18222    0.63386    0.39953    1.000
    Si1267   Si       0.21200    0.74120    0.47746    1.000
    N1268    N        0.21629    0.66022    0.39381    1.000
    Si1269   Si       0.19486    0.52612    0.52859    1.000
    N1270    N        0.21436    0.56353    0.53175    1.000
    N1271    N        0.19863    0.62796    0.50686    1.000
    N1272    N        0.16907    0.54299    0.60094    1.000
    N1273    N        0.20834    0.73217    0.51888    1.000
    Si1274   Si       0.16536    0.72354    0.52481    1.000
    N1275    N        0.16732    0.72484    0.56930    1.000
    Si1276   Si       0.17553    0.57569    0.62800    1.000
    N1277    N        0.21740    0.58593    0.63214    1.000
    Si1278   Si       0.17465    0.55529    0.70072    1.000
    N1279    N        0.21522    0.55931    0.71356    1.000
    N1280    N        0.19401    0.62690    0.73619    1.000
    Si1281   Si       0.19953    0.67143    0.74043    1.000
    N1282    N        0.19086    0.69493    0.70520    1.000
    N1283    N        0.19988    0.65419    0.65161    1.000
    N1284    N        0.21904    0.72444    0.64351    1.000
    Si1285   Si       0.21584    0.69090    0.67045    1.000
    Si1286   Si       0.20106    0.59504    0.81721    1.000
    Si1287   Si       0.20698    0.53925    0.85103    1.000
    N1288    N        0.18067    0.57929    0.85322    1.000
    N1289    N        0.17636    0.52197    0.82306    1.000
    N1290    N        0.20733    0.51242    0.76154    1.000
    N1291    N        0.17223    0.57923    0.78693    1.000
    N1292    N        0.20735    0.63640    0.80621    1.000
    Si1293   Si       0.17538    0.73459    0.77166    1.000
    N1294    N        0.17749    0.68993    0.77371    1.000
    Si1295   Si       0.18318    0.75284    0.84778    1.000
    N1296    N        0.20919    0.75009    0.75168    1.000
    N1297    N        0.22035    0.72906    0.85623    1.000
    Si1298   Si       0.16804    0.65492    0.79862    1.000
    N1299    N        0.20451    0.52623    0.89103    1.000
    N1300    N        0.20536    0.58635    0.98572    1.000
    Si1301   Si       0.20574    0.62819    0.98695    1.000
    Si1302   Si       0.16643    0.50793    0.90122    1.000
    N1303    N        0.16986    0.65234    0.99095    1.000
    Si1304   Si       0.16727    0.64885    0.87857    1.000
    N1305    N        0.20182    0.73525    0.93091    1.000
    Si1306   Si       0.20047    0.71370    0.89278    1.000
    N1307    N        0.20166    0.66993    0.89246    1.000
    Si1308   Si       0.20422    0.85349    0.03803    1.000
    Si1309   Si       0.19475    0.79164    0.00704    1.000
    N1310    N        0.17333    0.82655    0.02391    1.000
    N1311    N        0.22317    0.87371    0.00311    1.000
    N1312    N        0.21085    0.76295    0.03481    1.000
    N1313    N        0.19089    0.88745    0.06509    1.000
    N1314    N        0.21312    0.94738    0.10853    1.000
    Si1315   Si       0.21455    0.91541    0.00294    1.000
    Si1316   Si       0.22360    0.91595    0.07717    1.000
    N1317    N        0.16816    0.99037    0.00677    1.000
    N1318    N        0.17068    0.92185    0.99763    1.000
    Si1319   Si       0.17855    0.76419    0.13588    1.000
    N1320    N        0.20165    0.80151    0.13563    1.000
    N1321    N        0.21347    0.85417    0.17725    1.000
    Si1322   Si       0.18363    0.82489    0.16770    1.000
    N1323    N        0.17279    0.81155    0.20804    1.000
    Si1324   Si       0.18368    0.94448    0.13829    1.000
    N1325    N        0.20520    0.96579    0.17152    1.000
    N1326    N        0.17242    0.90830    0.15971    1.000
    Si1327   Si       0.17886    0.99932    0.16286    1.000
    Si1328   Si       0.19217    0.89063    0.19301    1.000
    N1329    N        0.19853    0.85409    0.29219    1.000
    Si1330   Si       0.18412    0.78681    0.36803    1.000
    N1331    N        0.20177    0.75211    0.34904    1.000
    Si1332   Si       0.18194    0.79154    0.24594    1.000
    N1333    N        0.16794    0.92737    0.29483    1.000
    N1334    N        0.17930    0.96650    0.35556    1.000
    Si1335   Si       0.19903    0.89737    0.29749    1.000
    Si1336   Si       0.17914    0.96508    0.31233    1.000
    N1337    N        0.20494    0.90026    0.34123    1.000
    N1338    N        0.21930    0.97541    0.29996    1.000
    Si1339   Si       0.18443    0.92850    0.37073    1.000
    Si1340   Si       0.17751    0.86921    0.47705    1.000
    N1341    N        0.19044    0.77846    0.47826    1.000
    Si1342   Si       0.19131    0.80548    0.44057    1.000
    N1343    N        0.17537    0.84628    0.44021    1.000
    N1344    N        0.16904    0.78336    0.41014    1.000
    Si1345   Si       0.19182    0.88104    0.41943    1.000
    Si1346   Si       0.19283    0.00068    0.37776    1.000
    N1347    N        0.19654    0.97472    0.48258    1.000
    Si1348   Si       0.21508    0.93637    0.47863    1.000
    Si1349   Si       0.20979    0.00830    0.45552    1.000
    N1350    N        0.19856    0.90268    0.45740    1.000
    N1351    N        0.21823    0.99096    0.41340    1.000
    Si1352   Si       0.19985    0.79666    0.51442    1.000
    N1353    N        0.17658    0.78725    0.55111    1.000
    Si1354   Si       0.18751    0.85623    0.60112    1.000
    N1355    N        0.18927    0.83933    0.50770    1.000
    N1356    N        0.17342    0.77332    0.61982    1.000
    N1357    N        0.18030    0.87852    0.56376    1.000
    Si1358   Si       0.19060    0.76059    0.58128    1.000
    N1359    N        0.21964    0.91798    0.51751    1.000
    N1360    N        0.20112    0.94076    0.58623    1.000
    Si1361   Si       0.19047    0.91897    0.54907    1.000
    N1362    N        0.18866    0.00192    0.57156    1.000
    Si1363   Si       0.22310    0.97940    0.58647    1.000
    Si1364   Si       0.19968    0.78348    0.72572    1.000
    Si1365   Si       0.20591    0.76487    0.64999    1.000
    N1366    N        0.19035    0.76153    0.69051    1.000
    N1367    N        0.16991    0.81305    0.72939    1.000
    N1368    N        0.20342    0.93492    0.65552    1.000
    Si1369   Si       0.17745    0.92941    0.61955    1.000
    N1370    N        0.17403    0.88667    0.63267    1.000
    N1371    N        0.18967    0.88380    0.71016    1.000
    Si1372   Si       0.19874    0.89288    0.66747    1.000
    Si1373   Si       0.21668    0.90130    0.74061    1.000
    Si1374   Si       0.20558    0.87300    0.81022    1.000
    N1375    N        0.19757    0.79527    0.85188    1.000
    N1376    N        0.22009    0.86829    0.76840    1.000
    N1377    N        0.16872    0.84900    0.81717    1.000
    Si1378   Si       0.16724    0.82431    0.85251    1.000
    N1379    N        0.18454    0.99703    0.77374    1.000
    Si1380   Si       0.17717    0.94056    0.84023    1.000
    N1381    N        0.19586    0.98022    0.84171    1.000
    N1382    N        0.20821    0.91402    0.82437    1.000
    Si1383   Si       0.22050    0.97543    0.76042    1.000
    N1384    N        0.19752    0.93887    0.75129    1.000
    N1385    N        0.18522    0.84278    0.94923    1.000
    Si1386   Si       0.22272    0.84697    0.96933    1.000
    Si1387   Si       0.17078    0.87106    0.91919    1.000
    Si1388   Si       0.17846    0.95998    0.97670    1.000
    N1389    N        0.21790    0.96584    0.90638    1.000
    N1390    N        0.20055    0.90143    0.92072    1.000
    Si1391   Si       0.18445    0.94052    0.90939    1.000
    N1392    N        0.23969    0.07037    0.03324    1.000
    Si1393   Si       0.25270    0.03052    0.04525    1.000
    N1394    N        0.23787    0.12285    0.07707    1.000
    Si1395   Si       0.26661    0.09199    0.00764    1.000
    Si1396   Si       0.25557    0.11159    0.11501    1.000
    Si1397   Si       0.24513    0.16458    0.06492    1.000
    N1398    N        0.23330    0.17830    0.02423    1.000
    Si1399   Si       0.23357    0.22811    0.09824    1.000
    N1400    N        0.23497    0.24152    0.05777    1.000
    N1401    N        0.26852    0.22512    0.12179    1.000
    N1402    N        0.22285    0.18536    0.09582    1.000
    N1403    N        0.23048    0.08734    0.13863    1.000
    N1404    N        0.23963    0.11413    0.19752    1.000
    N1405    N        0.23041    0.04197    0.20930    1.000
    Si1406   Si       0.25358    0.02050    0.23888    1.000
    Si1407   Si       0.24439    0.07219    0.18029    1.000
    Si1408   Si       0.26593    0.11974    0.23458    1.000
    N1409    N        0.27251    0.14688    0.13554    1.000
    Si1410   Si       0.25171    0.14838    0.17216    1.000
    N1411    N        0.25204    0.03408    0.28134    1.000
    N1412    N        0.23137    0.10022    0.25699    1.000
    Si1413   Si       0.24121    0.00898    0.31584    1.000
    Si1414   Si       0.26728    0.15365    0.29877    1.000
    N1415    N        0.26210    0.15891    0.25587    1.000
    N1416    N        0.23065    0.15641    0.32128    1.000
    Si1417   Si       0.24614    0.19944    0.24418    1.000
    N1418    N        0.22446    0.21046    0.28115    1.000
    N1419    N        0.24679    0.12310    0.37857    1.000
    Si1420   Si       0.25476    0.08137    0.38801    1.000
    N1421    N        0.24758    0.02819    0.46939    1.000
    N1422    N        0.27336    0.08118    0.42654    1.000
    N1423    N        0.27235    0.22758    0.36822    1.000
    Si1424   Si       0.26008    0.15170    0.48197    1.000
    N1425    N        0.22904    0.18583    0.40484    1.000
    Si1426   Si       0.26158    0.15731    0.40109    1.000
    Si1427   Si       0.22880    0.22237    0.38311    1.000
    N1428    N        0.23210    0.18275    0.47707    1.000
    N1429    N        0.27518    0.14742    0.44129    1.000
    N1430    N        0.26299    0.11223    0.56994    1.000
    Si1431   Si       0.25101    0.08984    0.53343    1.000
    Si1432   Si       0.27973    0.02667    0.50143    1.000
    Si1433   Si       0.22645    0.09697    0.59318    1.000
    N1434    N        0.24293    0.11330    0.49715    1.000
    Si1435   Si       0.25003    0.21059    0.57908    1.000
    N1436    N        0.23216    0.19039    0.54485    1.000
    Si1437   Si       0.23412    0.21389    0.50758    1.000
    N1438    N        0.27055    0.23381    0.49523    1.000
    N1439    N        0.26240    0.25215    0.57438    1.000
    Si1440   Si       0.26104    0.07982    0.67056    1.000
    N1441    N        0.24559    0.10369    0.63501    1.000
    N1442    N        0.25558    0.11575    0.69710    1.000
    N1443    N        0.23296    0.04545    0.67760    1.000
    Si1444   Si       0.22710    0.11123    0.73339    1.000
    N1445    N        0.25654    0.17469    0.65712    1.000
    Si1446   Si       0.26590    0.19638    0.69456    1.000
    N1447    N        0.27207    0.24047    0.69583    1.000
    Si1448   Si       0.23626    0.13727    0.66170    1.000
    N1449    N        0.22975    0.19076    0.71720    1.000
    N1450    N        0.25854    0.07866    0.79415    1.000
    Si1451   Si       0.27002    0.09724    0.83355    1.000
    N1452    N        0.23018    0.09643    0.85191    1.000
    N1453    N        0.24431    0.14164    0.75877    1.000
    N1454    N        0.23385    0.21190    0.78992    1.000
    Si1455   Si       0.27507    0.22207    0.79687    1.000
    Si1456   Si       0.27728    0.23953    0.86228    1.000
    Si1457   Si       0.22406    0.18226    0.75810    1.000
    N1458    N        0.23702    0.25605    0.86280    1.000
    N1459    N        0.24521    0.02565    0.86823    1.000
    N1460    N        0.23793    0.08551    0.93273    1.000
    N1461    N        0.24969    0.12522    0.98211    1.000
    Si1462   Si       0.25344    0.02168    0.97459    1.000
    N1463    N        0.27804    0.06075    0.98001    1.000
    Si1464   Si       0.28074    0.07631    0.93857    1.000
    Si1465   Si       0.22590    0.16494    0.88561    1.000
    N1466    N        0.26750    0.15642    0.88800    1.000
    Si1467   Si       0.25123    0.22054    0.92436    1.000
    N1468    N        0.26461    0.19313    0.95669    1.000
    Si1469   Si       0.25911    0.16823    0.99196    1.000
    N1470    N        0.23712    0.25752    0.93747    1.000
    N1471    N        0.24823    0.30777    0.06810    1.000
    Si1472   Si       0.26216    0.27391    0.04312    1.000
    N1473    N        0.25191    0.37280    0.09202    1.000
    N1474    N        0.27045    0.27219    0.00053    1.000
    Si1475   Si       0.22558    0.34436    0.06977    1.000
    Si1476   Si       0.23081    0.44869    0.06864    1.000
    Si1477   Si       0.24015    0.39544    0.01408    1.000
    N1478    N        0.27336    0.45895    0.06896    1.000
    N1479    N        0.27972    0.39576    0.03192    1.000
    Si1480   Si       0.24570    0.28393    0.21239    1.000
    N1481    N        0.24755    0.26954    0.17080    1.000
    N1482    N        0.23316    0.32648    0.21307    1.000
    Si1483   Si       0.24481    0.35217    0.24378    1.000
    N1484    N        0.23325    0.38102    0.16590    1.000
    N1485    N        0.27599    0.42500    0.13793    1.000
    N1486    N        0.22846    0.39104    0.23118    1.000
    N1487    N        0.23734    0.44665    0.19039    1.000
    Si1488   Si       0.25276    0.40558    0.19751    1.000
    N1489    N        0.25124    0.48995    0.12744    1.000
    Si1490   Si       0.24009    0.40124    0.12661    1.000
    Si1491   Si       0.26555    0.46284    0.16030    1.000
    N1492    N        0.23949    0.32712    0.35192    1.000
    Si1493   Si       0.25799    0.32074    0.30934    1.000
    N1494    N        0.24771    0.27990    0.30278    1.000
    N1495    N        0.23271    0.34836    0.28569    1.000
    Si1496   Si       0.26659    0.42919    0.32408    1.000
    N1497    N        0.26857    0.47302    0.32237    1.000
    Si1498   Si       0.25726    0.50031    0.35738    1.000
    N1499    N        0.27557    0.48060    0.25111    1.000
    Si1500   Si       0.23993    0.50216    0.26200    1.000
    N1501    N        0.22896    0.40792    0.32178    1.000
    N1502    N        0.23554    0.28412    0.46649    1.000
    N1503    N        0.26411    0.28815    0.39924    1.000
    Si1504   Si       0.26245    0.33028    0.38918    1.000
    N1505    N        0.27494    0.35025    0.42956    1.000
    Si1506   Si       0.27084    0.27717    0.49127    1.000
    N1507    N        0.27268    0.40310    0.47992    1.000
    N1508    N        0.26885    0.47308    0.38983    1.000
    Si1509   Si       0.25667    0.38750    0.44388    1.000
    Si1510   Si       0.23858    0.45685    0.41812    1.000
    Si1511   Si       0.27652    0.47955    0.48362    1.000
    N1512    N        0.25707    0.41860    0.41462    1.000
    N1513    N        0.24156    0.47381    0.45802    1.000
    Si1514   Si       0.24963    0.29246    0.58312    1.000
    N1515    N        0.24190    0.33108    0.56337    1.000
    N1516    N        0.28059    0.38210    0.60614    1.000
    N1517    N        0.25699    0.45116    0.57746    1.000
    Si1518   Si       0.24386    0.40195    0.51228    1.000
    N1519    N        0.27329    0.39261    0.54364    1.000
    N1520    N        0.22937    0.44276    0.51570    1.000
    N1521    N        0.28381    0.48702    0.52546    1.000
    Si1522   Si       0.28278    0.41777    0.57990    1.000
    N1523    N        0.22774    0.36394    0.64786    1.000
    N1524    N        0.25049    0.36714    0.71872    1.000
    Si1525   Si       0.27059    0.37213    0.64609    1.000
    N1526    N        0.26308    0.29623    0.72743    1.000
    Si1527   Si       0.23733    0.26601    0.69525    1.000
    Si1528   Si       0.25844    0.32908    0.69931    1.000
    N1529    N        0.28286    0.33361    0.66469    1.000
    Si1530   Si       0.26111    0.40619    0.70212    1.000
    N1531    N        0.27533    0.43755    0.72579    1.000
    N1532    N        0.27795    0.47618    0.66582    1.000
    Si1533   Si       0.24378    0.50276    0.66069    1.000
    Si1534   Si       0.25403    0.29222    0.84371    1.000
    Si1535   Si       0.24040    0.36653    0.76193    1.000
    N1536    N        0.23233    0.29734    0.80649    1.000
    Si1537   Si       0.25846    0.29661    0.77210    1.000
    N1538    N        0.27258    0.33960    0.77361    1.000
    N1539    N        0.25818    0.32509    0.86756    1.000
    N1540    N        0.25658    0.47552    0.77997    1.000
    Si1541   Si       0.26581    0.43576    0.76775    1.000
    Si1542   Si       0.25744    0.47373    0.86200    1.000
    N1543    N        0.23305    0.40815    0.76995    1.000
    N1544    N        0.23500    0.50317    0.83763    1.000
    N1545    N        0.28388    0.38905    0.86263    1.000
    N1546    N        0.23070    0.43848    0.86893    1.000
    Si1547   Si       0.23397    0.27176    0.97719    1.000
    N1548    N        0.23061    0.37619    0.90664    1.000
    Si1549   Si       0.28323    0.38710    0.95059    1.000
    N1550    N        0.27700    0.42223    0.92447    1.000
    N1551    N        0.24355    0.39174    0.97190    1.000
    N1552    N        0.26965    0.49272    0.89886    1.000
    Si1553   Si       0.25391    0.40678    0.88892    1.000
    N1554    N        0.26318    0.47086    0.97008    1.000
    Si1555   Si       0.23561    0.49999    0.98247    1.000
    N1556    N        0.24433    0.53065    0.01314    1.000
    Si1557   Si       0.25683    0.56244    0.09729    1.000
    N1558    N        0.25911    0.58310    0.05733    1.000
    Si1559   Si       0.23960    0.62275    0.06003    1.000
    Si1560   Si       0.27754    0.54705    0.03863    1.000
    N1561    N        0.27780    0.52832    0.07742    1.000
    N1562    N        0.25597    0.71991    0.04771    1.000
    N1563    N        0.27008    0.65221    0.07391    1.000
    N1564    N        0.24587    0.70170    0.11181    1.000
    Si1565   Si       0.26794    0.66404    0.11639    1.000
    N1566    N        0.22696    0.64188    0.02179    1.000
    Si1567   Si       0.26690    0.60390    0.15989    1.000
    N1568    N        0.23941    0.58487    0.18727    1.000
    Si1569   Si       0.25137    0.56548    0.22374    1.000
    N1570    N        0.22860    0.53067    0.22840    1.000
    N1571    N        0.28258    0.57911    0.12739    1.000
    Si1572   Si       0.26459    0.73836    0.12295    1.000
    N1573    N        0.24846    0.74699    0.16247    1.000
    N1574    N        0.24404    0.63657    0.13816    1.000
    Si1575   Si       0.25188    0.69014    0.22153    1.000
    N1576    N        0.24399    0.73723    0.22458    1.000
    Si1577   Si       0.24789    0.57222    0.29950    1.000
    N1578    N        0.24282    0.59131    0.25933    1.000
    N1579    N        0.23211    0.58747    0.33674    1.000
    Si1580   Si       0.27068    0.58036    0.36047    1.000
    N1581    N        0.23289    0.53216    0.29458    1.000
    N1582    N        0.27728    0.53607    0.36815    1.000
    N1583    N        0.26175    0.67588    0.32822    1.000
    Si1584   Si       0.25531    0.69034    0.28892    1.000
    N1585    N        0.24176    0.66406    0.25642    1.000
    Si1586   Si       0.23066    0.68276    0.35658    1.000
    N1587    N        0.23054    0.72567    0.28955    1.000
    Si1588   Si       0.24684    0.75652    0.26316    1.000
    N1589    N        0.22782    0.56698    0.46704    1.000
    N1590    N        0.27388    0.52430    0.47741    1.000
    N1591    N        0.26582    0.61788    0.47803    1.000
    N1592    N        0.25188    0.58850    0.39991    1.000
    Si1593   Si       0.27130    0.57106    0.47885    1.000
    Si1594   Si       0.23101    0.52215    0.46332    1.000
    N1595    N        0.26820    0.68513    0.43875    1.000
    N1596    N        0.24411    0.71720    0.38091    1.000
    Si1597   Si       0.27579    0.70194    0.47813    1.000
    N1598    N        0.25571    0.74221    0.47096    1.000
    Si1599   Si       0.23314    0.69545    0.41696    1.000
    Si1600   Si       0.25245    0.57706    0.55099    1.000
    N1601    N        0.26489    0.56156    0.58801    1.000
    N1602    N        0.25107    0.62280    0.54721    1.000
    N1603    N        0.28338    0.56612    0.52216    1.000
    Si1604   Si       0.24237    0.63862    0.50951    1.000
    N1605    N        0.23823    0.69312    0.57501    1.000
    Si1606   Si       0.24352    0.72080    0.60794    1.000
    Si1607   Si       0.24405    0.71592    0.53791    1.000
    Si1608   Si       0.25906    0.65473    0.57562    1.000
    N1609    N        0.25251    0.68151    0.50915    1.000
    N1610    N        0.28026    0.74334    0.54087    1.000
    N1611    N        0.25623    0.63955    0.61443    1.000
    N1612    N        0.23294    0.75714    0.58438    1.000
    Si1613   Si       0.24715    0.55582    0.62609    1.000
    Si1614   Si       0.23203    0.62413    0.64867    1.000
    N1615    N        0.24323    0.62144    0.68971    1.000
    N1616    N        0.26602    0.54107    0.66419    1.000
    Si1617   Si       0.23132    0.51906    0.72427    1.000
    N1618    N        0.27607    0.51009    0.72549    1.000
    N1619    N        0.22612    0.51535    0.62304    1.000
    Si1620   Si       0.22798    0.60065    0.72378    1.000
    N1621    N        0.25766    0.68660    0.68366    1.000
    N1622    N        0.28029    0.75420    0.69205    1.000
    Si1623   Si       0.26496    0.65376    0.71101    1.000
    N1624    N        0.23603    0.56884    0.82655    1.000
    N1625    N        0.25519    0.60436    0.75748    1.000
    Si1626   Si       0.27813    0.55853    0.82770    1.000
    N1627    N        0.28250    0.54729    0.78485    1.000
    Si1628   Si       0.24302    0.63797    0.78114    1.000
    Si1629   Si       0.26110    0.73370    0.83792    1.000
    N1630    N        0.25816    0.72812    0.79422    1.000
    Si1631   Si       0.27081    0.69330    0.77312    1.000
    N1632    N        0.27949    0.65692    0.80077    1.000
    N1633    N        0.24324    0.66900    0.74785    1.000
    Si1634   Si       0.24264    0.52650    0.91047    1.000
    Si1635   Si       0.24146    0.56305    0.98004    1.000
    N1636    N        0.27146    0.55591    0.89181    1.000
    N1637    N        0.27558    0.58410    0.96653    1.000
    Si1638   Si       0.26936    0.61998    0.94708    1.000
    N1639    N        0.25983    0.62495    0.90427    1.000
    N1640    N        0.23348    0.53026    0.95190    1.000
    N1641    N        0.23451    0.64494    0.95824    1.000
    N1642    N        0.26958    0.75853    0.96179    1.000
    Si1643   Si       0.24097    0.72837    0.94964    1.000
    Si1644   Si       0.23752    0.66089    0.91652    1.000
    N1645    N        0.23096    0.70590    0.98487    1.000
    N1646    N        0.25625    0.70037    0.91704    1.000
    Si1647   Si       0.24791    0.66841    0.99307    1.000
    N1648    N        0.24925    0.76984    0.09743    1.000
    Si1649   Si       0.26212    0.85419    0.07867    1.000
    Si1650   Si       0.23123    0.80894    0.10707    1.000
    N1651    N        0.22819    0.83139    0.06686    1.000
    Si1652   Si       0.24946    0.76225    0.05503    1.000
    N1653    N        0.27835    0.78224    0.03009    1.000
    N1654    N        0.26233    0.83679    0.11841    1.000
    Si1655   Si       0.22809    0.98858    0.11281    1.000
    Si1656   Si       0.24882    0.97047    0.04067    1.000
    N1657    N        0.26228    0.89824    0.08401    1.000
    N1658    N        0.23280    0.00119    0.07062    1.000
    N1659    N        0.25637    0.00215    0.01274    1.000
    N1660    N        0.22642    0.93549    0.03865    1.000
    N1661    N        0.24722    0.85131    0.23996    1.000
    Si1662   Si       0.24891    0.84113    0.19643    1.000
    N1663    N        0.26466    0.80121    0.19826    1.000
    Si1664   Si       0.27252    0.75860    0.19708    1.000
    N1665    N        0.27304    0.99399    0.12154    1.000
    Si1666   Si       0.23454    0.95463    0.20062    1.000
    N1667    N        0.24237    0.97920    0.23759    1.000
    N1668    N        0.22607    0.91195    0.20975    1.000
    N1669    N        0.27463    0.95856    0.18358    1.000
    Si1670   Si       0.25122    0.89481    0.24067    1.000
    N1671    N        0.27001    0.83002    0.30769    1.000
    Si1672   Si       0.23455    0.83310    0.27905    1.000
    N1673    N        0.27788    0.77382    0.34606    1.000
    N1674    N        0.22157    0.79243    0.26738    1.000
    Si1675   Si       0.24483    0.95377    0.27439    1.000
    N1676    N        0.23299    0.91073    0.27543    1.000
    N1677    N        0.27782    0.89445    0.35779    1.000
    Si1678   Si       0.23719    0.89545    0.36941    1.000
    N1679    N        0.28058    0.00241    0.33513    1.000
    Si1680   Si       0.24253    0.75923    0.37025    1.000
    N1681    N        0.22790    0.86455    0.39785    1.000
    N1682    N        0.27734    0.76991    0.40975    1.000
    Si1683   Si       0.26529    0.77753    0.44934    1.000
    N1684    N        0.23790    0.81447    0.44547    1.000
    Si1685   Si       0.24787    0.82627    0.40274    1.000
    Si1686   Si       0.25723    0.82459    0.48818    1.000
    N1687    N        0.22439    0.79855    0.38090    1.000
    N1688    N        0.25166    0.94485    0.45648    1.000
    Si1689   Si       0.24621    0.95696    0.41521    1.000
    N1690    N        0.22358    0.92790    0.39399    1.000
    Si1691   Si       0.26558    0.85179    0.58381    1.000
    N1692    N        0.24388    0.79811    0.52072    1.000
    Si1693   Si       0.26071    0.77900    0.55701    1.000
    N1694    N        0.22824    0.84486    0.60459    1.000
    N1695    N        0.28246    0.81240    0.57367    1.000
    N1696    N        0.27068    0.86290    0.50329    1.000
    N1697    N        0.26548    0.89109    0.56502    1.000
    Si1698   Si       0.25987    0.89949    0.52422    1.000
    N1699    N        0.26196    0.97059    0.57266    1.000
    Si1700   Si       0.27700    0.92749    0.58491    1.000
    N1701    N        0.23391    0.79653    0.65445    1.000
    Si1702   Si       0.26072    0.79261    0.68998    1.000
    Si1703   Si       0.25010    0.83713    0.64530    1.000
    N1704    N        0.23768    0.80500    0.72489    1.000
    N1705    N        0.23700    0.87688    0.66358    1.000
    N1706    N        0.28066    0.82772    0.67492    1.000
    N1707    N        0.26115    0.90566    0.73618    1.000
    N1708    N        0.23179    0.98895    0.62957    1.000
    Si1709   Si       0.24253    0.95238    0.64909    1.000
    N1710    N        0.26729    0.95312    0.68520    1.000
    N1711    N        0.23867    0.00089    0.73083    1.000
    Si1712   Si       0.27762    0.89238    0.65146    1.000
    N1713    N        0.26889    0.92603    0.62632    1.000
    Si1714   Si       0.27507    0.98642    0.71286    1.000
    N1715    N        0.26709    0.77969    0.84713    1.000
    Si1716   Si       0.23902    0.83041    0.76067    1.000
    Si1717   Si       0.26845    0.87099    0.84513    1.000
    Si1718   Si       0.23440    0.80402    0.83184    1.000
    N1719    N        0.23012    0.79857    0.78943    1.000
    N1720    N        0.23660    0.84716    0.83185    1.000
    Si1721   Si       0.24645    0.76214    0.77157    1.000
    N1722    N        0.28125    0.84361    0.76433    1.000
    Si1723   Si       0.24624    0.93335    0.82035    1.000
    N1724    N        0.26033    0.95990    0.85250    1.000
    N1725    N        0.24977    0.96227    0.78781    1.000
    N1726    N        0.27646    0.90059    0.81242    1.000
    N1727    N        0.25372    0.85720    0.94148    1.000
    Si1728   Si       0.26888    0.79345    0.98920    1.000
    N1729    N        0.22917    0.80681    0.98628    1.000
    Si1730   Si       0.23007    0.98480    0.86920    1.000
    N1731    N        0.27013    0.99280    0.94482    1.000
    N1732    N        0.27007    0.92386    0.93574    1.000
    Si1733   Si       0.24294    0.89327    0.91961    1.000
    Si1734   Si       0.24494    0.96027    0.94022    1.000
    N1735    N        0.25420    0.88783    0.88017    1.000
    N1736    N        0.21965    0.94768    0.97276    1.000
    N1737    N        0.30014    0.10150    0.03506    1.000
    Si1738   Si       0.30698    0.07384    0.06687    1.000
    N1739    N        0.29155    0.08937    0.10434    1.000
    N1740    N        0.29281    0.03415    0.06113    1.000
    Si1741   Si       0.31800    0.17979    0.04416    1.000
    N1742    N        0.29952    0.18106    0.00635    1.000
    Si1743   Si       0.28403    0.18421    0.11467    1.000
    N1744    N        0.28709    0.17352    0.07225    1.000
    N1745    N        0.34072    0.11537    0.15321    1.000
    Si1746   Si       0.30930    0.05846    0.20999    1.000
    Si1747   Si       0.31354    0.08233    0.14046    1.000
    N1748    N        0.29267    0.02169    0.22313    1.000
    N1749    N        0.28739    0.06764    0.17219    1.000
    N1750    N        0.30112    0.09267    0.23693    1.000
    N1751    N        0.28915    0.21611    0.23635    1.000
    Si1752   Si       0.30848    0.25030    0.21613    1.000
    N1753    N        0.28898    0.15566    0.19403    1.000
    Si1754   Si       0.31904    0.15162    0.15998    1.000
    N1755    N        0.32761    0.18261    0.12614    1.000
    N1756    N        0.31316    0.23920    0.17228    1.000
    Si1757   Si       0.31129    0.18051    0.21978    1.000
    Si1758   Si       0.32110    0.10104    0.27410    1.000
    Si1759   Si       0.31393    0.09674    0.33862    1.000
    Si1760   Si       0.29784    0.02818    0.36462    1.000
    N1761    N        0.29348    0.12081    0.30450    1.000
    N1762    N        0.32899    0.07048    0.30524    1.000
    N1763    N        0.34085    0.03019    0.35387    1.000
    N1764    N        0.28698    0.06942    0.36116    1.000
    Si1765   Si       0.30858    0.20486    0.27579    1.000
    Si1766   Si       0.29797    0.19781    0.35148    1.000
    N1767    N        0.33376    0.23780    0.28857    1.000
    N1768    N        0.28949    0.18856    0.31031    1.000
    N1769    N        0.33934    0.21234    0.35598    1.000
    N1770    N        0.33818    0.18009    0.25431    1.000
    N1771    N        0.33598    0.11541    0.42445    1.000
    N1772    N        0.28992    0.01963    0.40646    1.000
    Si1773   Si       0.29913    0.10983    0.44765    1.000
    N1774    N        0.30806    0.04418    0.47239    1.000
    N1775    N        0.31324    0.10963    0.48937    1.000
    Si1776   Si       0.33416    0.07234    0.49056    1.000
    Si1777   Si       0.27776    0.04074    0.44019    1.000
    Si1778   Si       0.33417    0.14655    0.39617    1.000
    N1779    N        0.32588    0.24671    0.40999    1.000
    N1780    N        0.29894    0.16680    0.38218    1.000
    N1781    N        0.33551    0.21951    0.47260    1.000
    N1782    N        0.31233    0.07581    0.59255    1.000
    Si1783   Si       0.31569    0.05044    0.55770    1.000
    Si1784   Si       0.30314    0.11830    0.58531    1.000
    N1785    N        0.32754    0.01185    0.57536    1.000
    N1786    N        0.27886    0.05532    0.53326    1.000
    Si1787   Si       0.32516    0.14325    0.51267    1.000
    Si1788   Si       0.32366    0.18759    0.56917    1.000
    N1789    N        0.32555    0.22097    0.54046    1.000
    N1790    N        0.32362    0.14487    0.55620    1.000
    Si1791   Si       0.30609    0.21030    0.50211    1.000
    N1792    N        0.29191    0.17026    0.50342    1.000
    N1793    N        0.28646    0.19121    0.59195    1.000
    Si1794   Si       0.32950    0.06344    0.62977    1.000
    Si1795   Si       0.31564    0.05033    0.70284    1.000
    N1796    N        0.30236    0.06861    0.66266    1.000
    N1797    N        0.33622    0.11975    0.69317    1.000
    N1798    N        0.28975    0.07049    0.73016    1.000
    Si1799   Si       0.29822    0.13188    0.71242    1.000
    N1800    N        0.30886    0.00892    0.70063    1.000
    Si1801   Si       0.34291    0.12801    0.65107    1.000
    Si1802   Si       0.31262    0.23911    0.67889    1.000
    Si1803   Si       0.32073    0.19830    0.74286    1.000
    N1804    N        0.31769    0.20522    0.65256    1.000
    N1805    N        0.29884    0.17681    0.70989    1.000
    N1806    N        0.33024    0.23794    0.72146    1.000
    N1807    N        0.30926    0.13943    0.62668    1.000
    Si1808   Si       0.29128    0.17705    0.63202    1.000
    N1809    N        0.29745    0.06586    0.84526    1.000
    Si1810   Si       0.29182    0.06225    0.77309    1.000
    N1811    N        0.32972    0.07793    0.78770    1.000
    N1812    N        0.29158    0.01916    0.78004    1.000
    Si1813   Si       0.33634    0.06325    0.82800    1.000
    N1814    N        0.31320    0.13197    0.75423    1.000
    N1815    N        0.29241    0.19065    0.77373    1.000
    Si1816   Si       0.29057    0.16443    0.85239    1.000
    N1817    N        0.28509    0.20531    0.83720    1.000
    N1818    N        0.28241    0.13707    0.82083    1.000
    Si1819   Si       0.28401    0.14911    0.77964    1.000
    Si1820   Si       0.28678    0.03314    0.87060    1.000
    N1821    N        0.30838    0.11018    0.93670    1.000
    N1822    N        0.29487    0.04641    0.91086    1.000
    Si1823   Si       0.29994    0.14470    0.91272    1.000
    Si1824   Si       0.33056    0.23790    0.91694    1.000
    N1825    N        0.32693    0.14942    0.87727    1.000
    Si1826   Si       0.30755    0.19582    0.96672    1.000
    N1827    N        0.31895    0.23569    0.96084    1.000
    N1828    N        0.32504    0.16958    0.93783    1.000
    N1829    N        0.28806    0.22767    0.90229    1.000
    N1830    N        0.31238    0.33907    0.06940    1.000
    N1831    N        0.30221    0.27307    0.06322    1.000
    Si1832   Si       0.29114    0.37686    0.06911    1.000
    Si1833   Si       0.28875    0.30547    0.08542    1.000
    Si1834   Si       0.34112    0.25704    0.05293    1.000
    N1835    N        0.31835    0.40855    0.08165    1.000
    Si1836   Si       0.29962    0.43225    0.04963    1.000
    N1837    N        0.32974    0.44372    0.02254    1.000
    N1838    N        0.32512    0.49188    0.11262    1.000
    Si1839   Si       0.28343    0.48987    0.09710    1.000
    N1840    N        0.29418    0.29684    0.12935    1.000
    N1841    N        0.32638    0.36508    0.13120    1.000
    Si1842   Si       0.32069    0.32420    0.14472    1.000
    Si1843   Si       0.30962    0.32486    0.22718    1.000
    N1844    N        0.33076    0.32737    0.18681    1.000
    N1845    N        0.28905    0.28796    0.22350    1.000
    N1846    N        0.28706    0.35811    0.24343    1.000
    Si1847   Si       0.28350    0.25831    0.14802    1.000
    Si1848   Si       0.31432    0.40756    0.12552    1.000
    Si1849   Si       0.30361    0.45807    0.22393    1.000
    Si1850   Si       0.33042    0.49535    0.15768    1.000
    N1851    N        0.30233    0.47518    0.18277    1.000
    N1852    N        0.29274    0.41637    0.21698    1.000
    N1853    N        0.31794    0.27772    0.34972    1.000
    Si1854   Si       0.32092    0.31926    0.34252    1.000
    N1855    N        0.29931    0.33295    0.30706    1.000
    Si1856   Si       0.33730    0.34622    0.28791    1.000
    Si1857   Si       0.29988    0.47026    0.28793    1.000
    N1858    N        0.29515    0.41632    0.35446    1.000
    Si1859   Si       0.30003    0.39647    0.25490    1.000
    N1860    N        0.33710    0.45941    0.25210    1.000
    N1861    N        0.33563    0.45561    0.31602    1.000
    N1862    N        0.28394    0.42377    0.28392    1.000
    N1863    N        0.33839    0.38900    0.27516    1.000
    Si1864   Si       0.33982    0.42471    0.35036    1.000
    N1865    N        0.30215    0.34390    0.37442    1.000
    N1866    N        0.30689    0.28801    0.46863    1.000
    Si1867   Si       0.31937    0.36886    0.40332    1.000
    Si1868   Si       0.30562    0.32965    0.45283    1.000
    Si1869   Si       0.29480    0.26199    0.38224    1.000
    Si1870   Si       0.33371    0.25894    0.45062    1.000
    N1871    N        0.34179    0.34503    0.43279    1.000
    N1872    N        0.33723    0.45113    0.38886    1.000
    Si1873   Si       0.29475    0.43430    0.39428    1.000
    N1874    N        0.31322    0.46068    0.46808    1.000
    N1875    N        0.31573    0.40599    0.42716    1.000
    Si1876   Si       0.31152    0.41742    0.46861    1.000
    N1877    N        0.32151    0.35374    0.55753    1.000
    Si1878   Si       0.32610    0.30849    0.50884    1.000
    N1879    N        0.29363    0.28780    0.52892    1.000
    Si1880   Si       0.30888    0.37701    0.52407    1.000
    N1881    N        0.28992    0.30693    0.59541    1.000
    Si1882   Si       0.30347    0.26978    0.56936    1.000
    Si1883   Si       0.28136    0.34922    0.57732    1.000
    N1884    N        0.34455    0.26630    0.58361    1.000
    N1885    N        0.31200    0.34577    0.49253    1.000
    N1886    N        0.33387    0.40646    0.50460    1.000
    N1887    N        0.31788    0.44422    0.57544    1.000
    Si1888   Si       0.29348    0.47968    0.56846    1.000
    N1889    N        0.30136    0.50334    0.60611    1.000
    Si1890   Si       0.30173    0.27033    0.73581    1.000
    N1891    N        0.32364    0.27580    0.65239    1.000
    Si1892   Si       0.30786    0.31234    0.63470    1.000
    Si1893   Si       0.32997    0.37914    0.69327    1.000
    N1894    N        0.32442    0.37857    0.73607    1.000
    N1895    N        0.32715    0.30569    0.74249    1.000
    N1896    N        0.33814    0.34518    0.62540    1.000
    Si1897   Si       0.31328    0.49134    0.64505    1.000
    N1898    N        0.29353    0.39618    0.67542    1.000
    N1899    N        0.33303    0.46612    0.71511    1.000
    Si1900   Si       0.29159    0.47168    0.70787    1.000
    N1901    N        0.32743    0.33480    0.85709    1.000
    Si1902   Si       0.31437    0.34298    0.76108    1.000
    N1903    N        0.29322    0.27417    0.84019    1.000
    Si1904   Si       0.32954    0.29140    0.85172    1.000
    N1905    N        0.33671    0.36366    0.79367    1.000
    N1906    N        0.28094    0.25835    0.77293    1.000
    Si1907   Si       0.32342    0.48863    0.82841    1.000
    Si1908   Si       0.30047    0.41823    0.83368    1.000
    N1909    N        0.29604    0.41602    0.79044    1.000
    N1910    N        0.32497    0.49017    0.78428    1.000
    Si1911   Si       0.33312    0.40196    0.77170    1.000
    N1912    N        0.29336    0.45861    0.84450    1.000
    Si1913   Si       0.28512    0.50726    0.77034    1.000
    N1914    N        0.31401    0.30253    0.95727    1.000
    N1915    N        0.29992    0.35641    0.92091    1.000
    Si1916   Si       0.33395    0.34182    0.94986    1.000
    Si1917   Si       0.31043    0.27133    0.98438    1.000
    Si1918   Si       0.29313    0.35010    0.87880    1.000
    N1919    N        0.32152    0.37746    0.97417    1.000
    N1920    N        0.33769    0.27378    0.89163    1.000
    N1921    N        0.32388    0.47600    0.93037    1.000
    Si1922   Si       0.34058    0.40864    0.99695    1.000
    Si1923   Si       0.28150    0.46464    0.93239    1.000
    N1924    N        0.30975    0.54858    0.01322    1.000
    N1925    N        0.33022    0.61076    0.00181    1.000
    N1926    N        0.32266    0.70197    0.06654    1.000
    Si1927   Si       0.32882    0.70725    0.10984    1.000
    N1928    N        0.28653    0.66806    0.01107    1.000
    Si1929   Si       0.28467    0.68666    0.05130    1.000
    N1930    N        0.29736    0.62435    0.18326    1.000
    N1931    N        0.32507    0.53983    0.16163    1.000
    Si1932   Si       0.33220    0.55006    0.20205    1.000
    Si1933   Si       0.31139    0.60305    0.21838    1.000
    Si1934   Si       0.32330    0.56760    0.12929    1.000
    N1935    N        0.29387    0.56199    0.22125    1.000
    Si1936   Si       0.31229    0.66346    0.17451    1.000
    N1937    N        0.30602    0.67589    0.13478    1.000
    N1938    N        0.30747    0.74140    0.12350    1.000
    N1939    N        0.29472    0.68387    0.20958    1.000
    Si1940   Si       0.32141    0.67292    0.24381    1.000
    Si1941   Si       0.32329    0.55019    0.30955    1.000
    N1942    N        0.28756    0.57404    0.31397    1.000
    N1943    N        0.31846    0.51298    0.28739    1.000
    N1944    N        0.33618    0.53027    0.34523    1.000
    N1945    N        0.31795    0.62871    0.25245    1.000
    Si1946   Si       0.30501    0.67791    0.33218    1.000
    N1947    N        0.32365    0.71910    0.32397    1.000
    Si1948   Si       0.31616    0.73275    0.28061    1.000
    N1949    N        0.29679    0.69562    0.27278    1.000
    N1950    N        0.33612    0.65008    0.31843    1.000
    N1951    N        0.31484    0.58854    0.37572    1.000
    N1952    N        0.33299    0.52498    0.41372    1.000
    Si1953   Si       0.31778    0.54624    0.37926    1.000
    Si1954   Si       0.30776    0.62029    0.46509    1.000
    N1955    N        0.31091    0.57709    0.45941    1.000
    Si1956   Si       0.33197    0.62521    0.38926    1.000
    Si1957   Si       0.33875    0.54508    0.45481    1.000
    N1958    N        0.33287    0.70642    0.43296    1.000
    N1959    N        0.32118    0.63967    0.42986    1.000
    Si1960   Si       0.30659    0.67924    0.41596    1.000
    N1961    N        0.30963    0.66623    0.37381    1.000
    N1962    N        0.32671    0.64091    0.49748    1.000
    Si1963   Si       0.30572    0.54324    0.58738    1.000
    Si1964   Si       0.30088    0.52724    0.51484    1.000
    N1965    N        0.32518    0.52799    0.55182    1.000
    N1966    N        0.33386    0.56954    0.60606    1.000
    Si1967   Si       0.32117    0.74665    0.52330    1.000
    N1968    N        0.29834    0.67360    0.56745    1.000
    Si1969   Si       0.32107    0.67210    0.52996    1.000
    Si1970   Si       0.31152    0.68551    0.60777    1.000
    N1971    N        0.31369    0.70591    0.49912    1.000
    N1972    N        0.30246    0.57513    0.72026    1.000
    Si1973   Si       0.29520    0.53903    0.69724    1.000
    Si1974   Si       0.32233    0.61009    0.70445    1.000
    N1975    N        0.32873    0.51950    0.67800    1.000
    N1976    N        0.33872    0.59847    0.66637    1.000
    N1977    N        0.30051    0.70744    0.74500    1.000
    N1978    N        0.32550    0.64641    0.61900    1.000
    Si1979   Si       0.28686    0.71720    0.66920    1.000
    N1980    N        0.30813    0.64795    0.71574    1.000
    Si1981   Si       0.30534    0.74715    0.72820    1.000
    Si1982   Si       0.33188    0.68661    0.72173    1.000
    N1983    N        0.32842    0.70362    0.68039    1.000
    N1984    N        0.28155    0.70988    0.62650    1.000
    N1985    N        0.32770    0.60419    0.78096    1.000
    N1986    N        0.30410    0.52620    0.84216    1.000
    Si1987   Si       0.29307    0.58230    0.76316    1.000
    Si1988   Si       0.31127    0.62941    0.81210    1.000
    N1989    N        0.29472    0.59744    0.83937    1.000
    Si1990   Si       0.33222    0.68767    0.85267    1.000
    N1991    N        0.29044    0.70751    0.85204    1.000
    N1992    N        0.34208    0.65265    0.83095    1.000
    Si1993   Si       0.30102    0.52331    0.88597    1.000
    N1994    N        0.32311    0.60212    0.90308    1.000
    Si1995   Si       0.31519    0.57614    0.98200    1.000
    N1996    N        0.34156    0.53335    0.89777    1.000
    N1997    N        0.34111    0.55547    0.95528    1.000
    Si1998   Si       0.28644    0.59625    0.88237    1.000
    N1999    N        0.31695    0.73849    0.90710    1.000
    Si2000   Si       0.31839    0.65163    0.99080    1.000
    N2001    N        0.32286    0.67466    0.89453    1.000
    N2002    N        0.30242    0.64663    0.95148    1.000
    Si2003   Si       0.29327    0.70418    0.89670    1.000
    Si2004   Si       0.33192    0.64116    0.92046    1.000
    Si2005   Si       0.31260    0.80352    0.04690    1.000
    N2006    N        0.29703    0.84478    0.05550    1.000
    N2007    N        0.32996    0.79272    0.08410    1.000
    Si2008   Si       0.32903    0.86895    0.07184    1.000
    N2009    N        0.32331    0.86954    0.11552    1.000
    Si2010   Si       0.29757    0.92630    0.08410    1.000
    N2011    N        0.32913    0.90944    0.05576    1.000
    Si2012   Si       0.29706    0.99837    0.08576    1.000
    N2013    N        0.28454    0.96079    0.06431    1.000
    Si2014   Si       0.33248    0.77709    0.12371    1.000
    N2015    N        0.32739    0.83996    0.21764    1.000
    Si2016   Si       0.29778    0.84541    0.14250    1.000
    N2017    N        0.31842    0.80820    0.15234    1.000
    Si2018   Si       0.30862    0.80761    0.19590    1.000
    N2019    N        0.31616    0.76422    0.20597    1.000
    Si2020   Si       0.31391    0.88033    0.20410    1.000
    N2021    N        0.28421    0.86358    0.17836    1.000
    N2022    N        0.31120    0.93231    0.12554    1.000
    N2023    N        0.32712    0.98953    0.16760    1.000
    Si2024   Si       0.29534    0.96532    0.14664    1.000
    N2025    N        0.29320    0.90340    0.23579    1.000
    N2026    N        0.33236    0.96434    0.23242    1.000
    Si2027   Si       0.30493    0.98176    0.20553    1.000
    N2028    N        0.32870    0.85929    0.33328    1.000
    Si2029   Si       0.29409    0.79299    0.31005    1.000
    Si2030   Si       0.28777    0.85528    0.34331    1.000
    N2031    N        0.33791    0.79870    0.30110    1.000
    N2032    N        0.28668    0.76387    0.27880    1.000
    Si2033   Si       0.31359    0.93477    0.25834    1.000
    Si2034   Si       0.30704    0.97610    0.31643    1.000
    N2035    N        0.32527    0.94739    0.34384    1.000
    N2036    N        0.28693    0.95405    0.28464    1.000
    N2037    N        0.34284    0.99348    0.29815    1.000
    Si2038   Si       0.30122    0.78786    0.38006    1.000
    N2039    N        0.29099    0.80189    0.47328    1.000
    Si2040   Si       0.31323    0.86841    0.49123    1.000
    Si2041   Si       0.32998    0.79768    0.48942    1.000
    N2042    N        0.28507    0.83009    0.38045    1.000
    Si2043   Si       0.30581    0.92474    0.37448    1.000
    N2044    N        0.31618    0.90003    0.46132    1.000
    Si2045   Si       0.29284    0.93738    0.46888    1.000
    Si2046   Si       0.33780    0.98628    0.48984    1.000
    N2047    N        0.31671    0.97199    0.45637    1.000
    N2048    N        0.33685    0.90177    0.39510    1.000
    Si2049   Si       0.31454    0.98707    0.41670    1.000
    N2050    N        0.28813    0.95356    0.39945    1.000
    Si2051   Si       0.32661    0.80776    0.57074    1.000
    N2052    N        0.32794    0.78995    0.53200    1.000
    Si2053   Si       0.33266    0.85929    0.62118    1.000
    N2054    N        0.28903    0.86025    0.62210    1.000
    N2055    N        0.31858    0.93912    0.57369    1.000
    Si2056   Si       0.30163    0.97951    0.55832    1.000
    Si2057   Si       0.32907    0.92544    0.53340    1.000
    N2058    N        0.30309    0.99547    0.51610    1.000
    N2059    N        0.28931    0.92989    0.51320    1.000
    N2060    N        0.33411    0.88410    0.52725    1.000
    Si2061   Si       0.31811    0.84755    0.68845    1.000
    N2062    N        0.32747    0.81764    0.71861    1.000
    Si2063   Si       0.33352    0.97854    0.71909    1.000
    Si2064   Si       0.29368    0.92729    0.71153    1.000
    N2065    N        0.33628    0.94243    0.69562    1.000
    N2066    N        0.30543    0.89099    0.68446    1.000
    N2067    N        0.30016    0.96167    0.74256    1.000
    Si2068   Si       0.31022    0.81029    0.75730    1.000
    Si2069   Si       0.29931    0.80158    0.86832    1.000
    N2070    N        0.30065    0.84540    0.86217    1.000
    N2071    N        0.33527    0.78232    0.85672    1.000
    N2072    N        0.28837    0.77428    0.75760    1.000
    N2073    N        0.33621    0.81250    0.79160    1.000
    N2074    N        0.31403    0.95730    0.81170    1.000
    Si2075   Si       0.30229    0.95856    0.85250    1.000
    Si2076   Si       0.31945    0.91081    0.81652    1.000
    N2077    N        0.31605    0.91882    0.86306    1.000
    Si2078   Si       0.29066    0.97640    0.78109    1.000
    N2079    N        0.32395    0.89758    0.77133    1.000
    Si2080   Si       0.28063    0.88739    0.76967    1.000
    Si2081   Si       0.32856    0.87906    0.87656    1.000
    N2082    N        0.29559    0.80139    0.91028    1.000
    N2083    N        0.31903    0.87051    0.92064    1.000
    Si2084   Si       0.29133    0.83800    0.93259    1.000
    Si2085   Si       0.30621    0.76873    0.93781    1.000
    N2086    N        0.29950    0.81684    0.97157    1.000
    N2087    N        0.33941    0.76085    0.96934    1.000
    Si2088   Si       0.34148    0.80479    0.97866    1.000
    N2089    N        0.31058    0.99540    0.87569    1.000
    Si2090   Si       0.30313    0.00533    0.92005    1.000
    Si2091   Si       0.31033    0.90860    0.94283    1.000
    N2092    N        0.32006    0.90248    0.98468    1.000
    N2093    N        0.34030    0.00436    0.94193    1.000
    Si2094   Si       0.37151    0.06178    0.10063    1.000
    N2095    N        0.35041    0.07725    0.06496    1.000
    N2096    N        0.37175    0.03005    0.00863    1.000
    N2097    N        0.39522    0.09586    0.11483    1.000
    N2098    N        0.39680    0.02877    0.08800    1.000
    Si2099   Si       0.34240    0.11000    0.03463    1.000
    Si2100   Si       0.35761    0.19999    0.09780    1.000
    Si2101   Si       0.39236    0.16021    0.05189    1.000
    N2102    N        0.39655    0.18208    0.09096    1.000
    N2103    N        0.34930    0.15015    0.04835    1.000
    N2104    N        0.33997    0.21426    0.06022    1.000
    N2105    N        0.34255    0.05178    0.13375    1.000
    N2106    N        0.39596    0.02284    0.16670    1.000
    Si2107   Si       0.35229    0.02322    0.16425    1.000
    Si2108   Si       0.38418    0.11113    0.15530    1.000
    N2109    N        0.35065    0.04877    0.20192    1.000
    Si2110   Si       0.39567    0.05051    0.20008    1.000
    N2111    N        0.35034    0.25413    0.22522    1.000
    N2112    N        0.39339    0.21771    0.17515    1.000
    N2113    N        0.34393    0.17980    0.18833    1.000
    Si2114   Si       0.34935    0.21640    0.15943    1.000
    N2115    N        0.40147    0.15081    0.15915    1.000
    N2116    N        0.36169    0.23632    0.12182    1.000
    Si2117   Si       0.38853    0.17697    0.19183    1.000
    N2118    N        0.39867    0.15454    0.22784    1.000
    N2119    N        0.38941    0.04226    0.29092    1.000
    N2120    N        0.35942    0.12050    0.27263    1.000
    Si2121   Si       0.34952    0.03381    0.31120    1.000
    Si2122   Si       0.39269    0.10374    0.29142    1.000
    Si2123   Si       0.38551    0.10527    0.36830    1.000
    N2124    N        0.34344    0.11999    0.36020    1.000
    Si2125   Si       0.37867    0.16441    0.26794    1.000
    Si2126   Si       0.36727    0.23310    0.25903    1.000
    N2127    N        0.39281    0.20358    0.27562    1.000
    Si2128   Si       0.34344    0.24831    0.32995    1.000
    Si2129   Si       0.37373    0.03159    0.38145    1.000
    N2130    N        0.37948    0.07179    0.39646    1.000
    Si2131   Si       0.37180    0.09134    0.43355    1.000
    N2132    N        0.37229    0.06874    0.46989    1.000
    Si2133   Si       0.40136    0.03629    0.48039    1.000
    Si2134   Si       0.35537    0.21759    0.39459    1.000
    Si2135   Si       0.36482    0.19111    0.46050    1.000
    N2136    N        0.39211    0.23833    0.39786    1.000
    N2137    N        0.35669    0.18051    0.41816    1.000
    N2138    N        0.35878    0.16270    0.49477    1.000
    Si2139   Si       0.38925    0.07667    0.53474    1.000
    N2140    N        0.34576    0.06713    0.53246    1.000
    N2141    N        0.35743    0.19523    0.59473    1.000
    Si2142   Si       0.35891    0.25026    0.54474    1.000
    N2143    N        0.39695    0.22707    0.54693    1.000
    Si2144   Si       0.39677    0.15178    0.51370    1.000
    N2145    N        0.35077    0.02792    0.63495    1.000
    N2146    N        0.36032    0.09470    0.63215    1.000
    N2147    N        0.35624    0.06063    0.71569    1.000
    Si2148   Si       0.38495    0.03493    0.73502    1.000
    Si2149   Si       0.37047    0.10082    0.71031    1.000
    Si2150   Si       0.37391    0.23273    0.73852    1.000
    Si2151   Si       0.35638    0.19823    0.63652    1.000
    N2152    N        0.37649    0.23380    0.64669    1.000
    N2153    N        0.37270    0.16074    0.65173    1.000
    N2154    N        0.36465    0.09114    0.84497    1.000
    N2155    N        0.35302    0.02355    0.82665    1.000
    Si2156   Si       0.39214    0.01766    0.81045    1.000
    Si2157   Si       0.34765    0.11586    0.77767    1.000
    Si2158   Si       0.39332    0.06492    0.86537    1.000
    N2159    N        0.38313    0.11271    0.75097    1.000
    Si2160   Si       0.36029    0.13442    0.85000    1.000
    Si2161   Si       0.39233    0.25234    0.81093    1.000
    Si2162   Si       0.37983    0.18065    0.79448    1.000
    N2163    N        0.35522    0.14760    0.80851    1.000
    N2164    N        0.36019    0.19627    0.75985    1.000
    N2165    N        0.38581    0.21181    0.82475    1.000
    N2166    N        0.36837    0.03514    0.88717    1.000
    Si2167   Si       0.36952    0.03635    0.92943    1.000
    N2168    N        0.36036    0.07164    0.95106    1.000
    Si2169   Si       0.34906    0.11266    0.95129    1.000
    Si2170   Si       0.38106    0.06839    0.99014    1.000
    N2171    N        0.36009    0.10898    0.99706    1.000
    N2172    N        0.37747    0.13532    0.92859    1.000
    Si2173   Si       0.40011    0.23215    0.92482    1.000
    N2174    N        0.36442    0.21160    0.90822    1.000
    N2175    N        0.38853    0.16043    0.87275    1.000
    Si2176   Si       0.35625    0.16881    0.90537    1.000
    N2177    N        0.37958    0.27358    0.06841    1.000
    Si2178   Si       0.38006    0.27343    0.11237    1.000
    Si2179   Si       0.39160    0.35764    0.01022    1.000
    N2180    N        0.34489    0.27013    0.01055    1.000
    N2181    N        0.38598    0.38166    0.09276    1.000
    N2182    N        0.36576    0.38975    0.02672    1.000
    N2183    N        0.38002    0.44667    0.06938    1.000
    Si2184   Si       0.36070    0.41006    0.06744    1.000
    Si2185   Si       0.36535    0.46990    0.02602    1.000
    N2186    N        0.35346    0.50451    0.04707    1.000
    N2187    N        0.40173    0.50442    0.09668    1.000
    N2188    N        0.36381    0.30675    0.13726    1.000
    Si2189   Si       0.37286    0.29167    0.23776    1.000
    Si2190   Si       0.37261    0.32837    0.17475    1.000
    N2191    N        0.39122    0.36571    0.16380    1.000
    N2192    N        0.39579    0.30783    0.20528    1.000
    Si2193   Si       0.36829    0.37956    0.13109    1.000
    N2194    N        0.40055    0.43023    0.19647    1.000
    N2195    N        0.37227    0.48643    0.16621    1.000
    N2196    N        0.35370    0.42091    0.14083    1.000
    Si2197   Si       0.38474    0.44660    0.15624    1.000
    N2198    N        0.35827    0.32951    0.32459    1.000
    Si2199   Si       0.39246    0.30532    0.33068    1.000
    N2200    N        0.39755    0.26746    0.26442    1.000
    N2201    N        0.34420    0.32156    0.25255    1.000
    N2202    N        0.38682    0.26006    0.32914    1.000
    N2203    N        0.37953    0.41299    0.32596    1.000
    Si2204   Si       0.35384    0.49303    0.32901    1.000
    N2205    N        0.38297    0.48774    0.36367    1.000
    Si2206   Si       0.35450    0.43034    0.28401    1.000
    Si2207   Si       0.39363    0.39458    0.36456    1.000
    Si2208   Si       0.35209    0.49999    0.26039    1.000
    N2209    N        0.39634    0.43598    0.26851    1.000
    N2210    N        0.37990    0.50403    0.29442    1.000
    N2211    N        0.37445    0.27269    0.45392    1.000
    Si2212   Si       0.37876    0.35593    0.44836    1.000
    Si2213   Si       0.39259    0.29281    0.49047    1.000
    N2214    N        0.39267    0.33521    0.48290    1.000
    Si2215   Si       0.36159    0.41970    0.41602    1.000
    N2216    N        0.37751    0.40075    0.45421    1.000
    N2217    N        0.37697    0.47821    0.43656    1.000
    Si2218   Si       0.35596    0.49031    0.39841    1.000
    Si2219   Si       0.35070    0.48040    0.47295    1.000
    N2220    N        0.35368    0.38900    0.37856    1.000
    N2221    N        0.40130    0.42164    0.39580    1.000
    N2222    N        0.35966    0.28481    0.51836    1.000
    Si2223   Si       0.35147    0.36370    0.58934    1.000
    N2224    N        0.39183    0.34613    0.58273    1.000
    N2225    N        0.39412    0.46141    0.59400    1.000
    N2226    N        0.36901    0.40335    0.59949    1.000
    Si2227   Si       0.35259    0.44384    0.60222    1.000
    N2228    N        0.39771    0.50352    0.53999    1.000
    N2229    N        0.37977    0.45772    0.49682    1.000
    Si2230   Si       0.37391    0.41477    0.49604    1.000
    Si2231   Si       0.35836    0.26708    0.62485    1.000
    Si2232   Si       0.36230    0.31131    0.71706    1.000
    N2233    N        0.38379    0.27314    0.70656    1.000
    N2234    N        0.38737    0.29852    0.63039    1.000
    Si2235   Si       0.37390    0.33553    0.64929    1.000
    N2236    N        0.35292    0.33957    0.68719    1.000
    N2237    N        0.34221    0.45994    0.64151    1.000
    N2238    N        0.39154    0.48040    0.68378    1.000
    Si2239   Si       0.35817    0.45041    0.68262    1.000
    N2240    N        0.36240    0.40790    0.68541    1.000
    N2241    N        0.36173    0.27662    0.82640    1.000
    N2242    N        0.38986    0.36363    0.84875    1.000
    Si2243   Si       0.34870    0.36656    0.83665    1.000
    N2244    N        0.39483    0.25752    0.76846    1.000
    N2245    N        0.39705    0.32550    0.74088    1.000
    N2246    N        0.34318    0.41061    0.84033    1.000
    Si2247   Si       0.35264    0.47534    0.75457    1.000
    N2248    N        0.35802    0.48256    0.85397    1.000
    N2249    N        0.36314    0.43456    0.76779    1.000
    Si2250   Si       0.37185    0.44048    0.85351    1.000
    N2251    N        0.36265    0.33632    0.91686    1.000
    Si2252   Si       0.37007    0.29563    0.90993    1.000
    Si2253   Si       0.37536    0.28657    0.98253    1.000
    N2254    N        0.38140    0.27043    0.94215    1.000
    N2255    N        0.36736    0.32946    0.98450    1.000
    Si2256   Si       0.39675    0.34817    0.88943    1.000
    N2257    N        0.40542    0.30467    0.88435    1.000
    Si2258   Si       0.36227    0.45297    0.92774    1.000
    N2259    N        0.38146    0.49337    0.92368    1.000
    N2260    N        0.35923    0.49695    0.98662    1.000
    N2261    N        0.37916    0.43131    0.89654    1.000
    N2262    N        0.36420    0.42631    0.96403    1.000
    Si2263   Si       0.37510    0.58759    0.09870    1.000
    N2264    N        0.38015    0.60812    0.06206    1.000
    N2265    N        0.38082    0.56133    0.01433    1.000
    Si2266   Si       0.36742    0.60358    0.01993    1.000
    Si2267   Si       0.34966    0.53094    0.01164    1.000
    N2268    N        0.40022    0.63331    0.00325    1.000
    N2269    N        0.34894    0.55309    0.09727    1.000
    Si2270   Si       0.35777    0.51040    0.09045    1.000
    N2271    N        0.35041    0.67852    0.00383    1.000
    Si2272   Si       0.35871    0.70065    0.04055    1.000
    N2273    N        0.38439    0.73480    0.02294    1.000
    N2274    N        0.38998    0.67600    0.06025    1.000
    N2275    N        0.37043    0.70868    0.11901    1.000
    N2276    N        0.35017    0.59055    0.20436    1.000
    N2277    N        0.35584    0.52059    0.22291    1.000
    Si2278   Si       0.36664    0.61714    0.17190    1.000
    N2279    N        0.35324    0.60210    0.13452    1.000
    Si2280   Si       0.38716    0.51076    0.19547    1.000
    Si2281   Si       0.38044    0.68547    0.20504    1.000
    N2282    N        0.35448    0.65877    0.18309    1.000
    Si2283   Si       0.38896    0.73429    0.15018    1.000
    N2284    N        0.37309    0.72581    0.19171    1.000
    Si2285   Si       0.35676    0.75662    0.21918    1.000
    N2286    N        0.36472    0.67870    0.24631    1.000
    N2287    N        0.35133    0.57833    0.28913    1.000
    N2288    N        0.38997    0.62447    0.27685    1.000
    Si2289   Si       0.34701    0.62274    0.28532    1.000
    Si2290   Si       0.39798    0.58246    0.28551    1.000
    N2291    N        0.35213    0.74562    0.26063    1.000
    Si2292   Si       0.36638    0.66705    0.34611    1.000
    Si2293   Si       0.34861    0.74076    0.35124    1.000
    N2294    N        0.38484    0.75071    0.32743    1.000
    N2295    N        0.39583    0.68100    0.31702    1.000
    Si2296   Si       0.40122    0.66633    0.27446    1.000
    N2297    N        0.36791    0.70496    0.36856    1.000
    N2298    N        0.38000    0.55445    0.45460    1.000
    N2299    N        0.39132    0.61494    0.49424    1.000
    N2300    N        0.34245    0.51909    0.49320    1.000
    N2301    N        0.39582    0.73821    0.43510    1.000
    Si2302   Si       0.39372    0.71100    0.40274    1.000
    Si2303   Si       0.34558    0.71646    0.47218    1.000
    N2304    N        0.37129    0.63885    0.38057    1.000
    N2305    N        0.37801    0.69311    0.49039    1.000
    Si2306   Si       0.36457    0.52767    0.53077    1.000
    N2307    N        0.38069    0.56415    0.54897    1.000
    Si2308   Si       0.37920    0.56366    0.59225    1.000
    N2309    N        0.38417    0.60151    0.61164    1.000
    N2310    N        0.36339    0.65851    0.54562    1.000
    N2311    N        0.35520    0.72851    0.54697    1.000
    Si2312   Si       0.36095    0.74029    0.58801    1.000
    Si2313   Si       0.39163    0.71304    0.52695    1.000
    N2314    N        0.34641    0.71185    0.61659    1.000
    Si2315   Si       0.36965    0.65067    0.50238    1.000
    N2316    N        0.36458    0.60258    0.72373    1.000
    Si2317   Si       0.37995    0.59010    0.68363    1.000
    N2318    N        0.39171    0.54842    0.67900    1.000
    Si2319   Si       0.36881    0.51559    0.69871    1.000
    N2320    N        0.37919    0.51122    0.74240    1.000
    Si2321   Si       0.34272    0.60743    0.62416    1.000
    N2322    N        0.40288    0.71505    0.65779    1.000
    N2323    N        0.34567    0.75785    0.73097    1.000
    Si2324   Si       0.35919    0.72278    0.65640    1.000
    Si2325   Si       0.36785    0.60106    0.76609    1.000
    N2326    N        0.39469    0.56934    0.78181    1.000
    N2327    N        0.39988    0.53643    0.86114    1.000
    N2328    N        0.40001    0.60917    0.84026    1.000
    N2329    N        0.39194    0.63589    0.77789    1.000
    N2330    N        0.37077    0.75050    0.79739    1.000
    Si2331   Si       0.38434    0.64588    0.82025    1.000
    N2332    N        0.36029    0.71914    0.85393    1.000
    Si2333   Si       0.37668    0.73730    0.75479    1.000
    Si2334   Si       0.39734    0.72688    0.82586    1.000
    N2335    N        0.36632    0.69261    0.74836    1.000
    Si2336   Si       0.40365    0.66908    0.75193    1.000
    Si2337   Si       0.35143    0.57163    0.91556    1.000
    N2338    N        0.38886    0.58789    0.90548    1.000
    Si2339   Si       0.34648    0.51124    0.94706    1.000
    Si2340   Si       0.37432    0.50991    0.88321    1.000
    Si2341   Si       0.40255    0.62422    0.92407    1.000
    N2342    N        0.39396    0.70410    0.95827    1.000
    Si2343   Si       0.38306    0.66638    0.97694    1.000
    Si2344   Si       0.35057    0.74935    0.88290    1.000
    Si2345   Si       0.37888    0.74175    0.97916    1.000
    N2346    N        0.38672    0.75369    0.90898    1.000
    N2347    N        0.36824    0.64157    0.94403    1.000
    N2348    N        0.36852    0.85420    0.06373    1.000
    Si2349   Si       0.38232    0.82048    0.04022    1.000
    Si2350   Si       0.39332    0.87345    0.09446    1.000
    N2351    N        0.34746    0.80492    0.02010    1.000
    N2352    N        0.39915    0.79136    0.06719    1.000
    N2353    N        0.39055    0.96532    0.05106    1.000
    Si2354   Si       0.38304    0.98917    0.01556    1.000
    Si2355   Si       0.38285    0.98696    0.08804    1.000
    N2356    N        0.38580    0.90134    0.01264    1.000
    Si2357   Si       0.34555    0.91923    0.01453    1.000
    N2358    N        0.38263    0.90470    0.12292    1.000
    N2359    N        0.35346    0.96130    0.99887    1.000
    N2360    N        0.34163    0.99217    0.09146    1.000
    N2361    N        0.37888    0.79445    0.21906    1.000
    N2362    N        0.37341    0.77149    0.13286    1.000
    Si2363   Si       0.36966    0.83644    0.23035    1.000
    N2364    N        0.39859    0.85692    0.20425    1.000
    N2365    N        0.34560    0.89825    0.18033    1.000
    Si2366   Si       0.38879    0.89980    0.19700    1.000
    N2367    N        0.39271    0.91683    0.23604    1.000
    Si2368   Si       0.34073    0.90401    0.13744    1.000
    N2369    N        0.36921    0.85647    0.26979    1.000
    Si2370   Si       0.37171    0.77131    0.29100    1.000
    Si2371   Si       0.35441    0.83810    0.30674    1.000
    N2372    N        0.38966    0.82476    0.33026    1.000
    Si2373   Si       0.35574    0.87624    0.36424    1.000
    Si2374   Si       0.37568    0.80541    0.36796    1.000
    N2375    N        0.34196    0.77666    0.37403    1.000
    Si2376   Si       0.38147    0.89751    0.27459    1.000
    N2377    N        0.37807    0.89954    0.33622    1.000
    Si2378   Si       0.36361    0.94206    0.32616    1.000
    N2379    N        0.35254    0.93162    0.28478    1.000
    Si2380   Si       0.36092    0.97129    0.26481    1.000
    Si2381   Si       0.38491    0.84339    0.48194    1.000
    N2382    N        0.36891    0.84300    0.38846    1.000
    N2383    N        0.38789    0.87659    0.44997    1.000
    N2384    N        0.34353    0.83819    0.48491    1.000
    N2385    N        0.34247    0.75733    0.48318    1.000
    Si2386   Si       0.38265    0.98151    0.43410    1.000
    N2387    N        0.37709    0.93829    0.44168    1.000
    N2388    N        0.35540    0.00259    0.41061    1.000
    Si2389   Si       0.35021    0.90191    0.43563    1.000
    N2390    N        0.38240    0.99611    0.47683    1.000
    Si2391   Si       0.36722    0.87060    0.55006    1.000
    N2392    N        0.34617    0.78039    0.59651    1.000
    N2393    N        0.39545    0.84711    0.52525    1.000
    N2394    N        0.34637    0.84552    0.58075    1.000
    Si2395   Si       0.35268    0.92646    0.59786    1.000
    N2396    N        0.38232    0.90855    0.57064    1.000
    N2397    N        0.35493    0.95395    0.51488    1.000
    N2398    N        0.36680    0.96413    0.61699    1.000
    Si2399   Si       0.39550    0.96243    0.50169    1.000
    Si2400   Si       0.36215    0.00331    0.60239    1.000
    Si2401   Si       0.36236    0.79686    0.63332    1.000
    N2402    N        0.35778    0.76589    0.66460    1.000
    Si2403   Si       0.35590    0.78832    0.70153    1.000
    N2404    N        0.36554    0.87794    0.70681    1.000
    N2405    N        0.39318    0.80736    0.70766    1.000
    N2406    N        0.34508    0.83176    0.65307    1.000
    N2407    N        0.36753    0.99561    0.73937    1.000
    N2408    N        0.39560    0.92299    0.66892    1.000
    Si2409   Si       0.35290    0.90789    0.67483    1.000
    N2410    N        0.34192    0.90009    0.63280    1.000
    Si2411   Si       0.40242    0.95418    0.64117    1.000
    Si2412   Si       0.35845    0.89337    0.74745    1.000
    N2413    N        0.38608    0.86514    0.77397    1.000
    N2414    N        0.38441    0.82332    0.82943    1.000
    Si2415   Si       0.35932    0.78733    0.81821    1.000
    Si2416   Si       0.35933    0.84724    0.80261    1.000
    N2417    N        0.35134    0.87968    0.83174    1.000
    Si2418   Si       0.39099    0.88439    0.85137    1.000
    N2419    N        0.38633    0.92696    0.75826    1.000
    N2420    N        0.37751    0.96231    0.86661    1.000
    Si2421   Si       0.35580    0.00081    0.86520    1.000
    Si2422   Si       0.39781    0.97023    0.75986    1.000
    N2423    N        0.40415    0.77548    0.97005    1.000
    Si2424   Si       0.39217    0.79212    0.93201    1.000
    N2425    N        0.36198    0.82208    0.94502    1.000
    Si2426   Si       0.36223    0.86336    0.93074    1.000
    N2427    N        0.37377    0.88624    0.89169    1.000
    N2428    N        0.40185    0.87309    0.94606    1.000
    N2429    N        0.39361    0.96539    0.93513    1.000
    Si2430   Si       0.35418    0.96634    0.95615    1.000
    Si2431   Si       0.38124    0.93612    0.90387    1.000
    N2432    N        0.34233    0.93348    0.92854    1.000
    Si2433   Si       0.42790    0.10506    0.08490    1.000
    Si2434   Si       0.43949    0.03273    0.08158    1.000
    Si2435   Si       0.43722    0.11545    0.00994    1.000
    N2436    N        0.45464    0.07258    0.07814    1.000
    N2437    N        0.41377    0.12416    0.04756    1.000
    N2438    N        0.45200    0.00979    0.04989    1.000
    N2439    N        0.45831    0.01469    0.11753    1.000
    N2440    N        0.44825    0.13849    0.10557    1.000
    N2441    N        0.40836    0.18813    0.02263    1.000
    N2442    N        0.42290    0.03438    0.22948    1.000
    Si2443   Si       0.41927    0.11618    0.22285    1.000
    Si2444   Si       0.45674    0.01807    0.20642    1.000
    N2445    N        0.40135    0.09213    0.19215    1.000
    Si2446   Si       0.42644    0.23645    0.15564    1.000
    N2447    N        0.44699    0.20048    0.13543    1.000
    Si2448   Si       0.42205    0.16756    0.12522    1.000
    N2449    N        0.45735    0.25565    0.17823    1.000
    Si2450   Si       0.41725    0.04753    0.32335    1.000
    Si2451   Si       0.41967    0.01809    0.26887    1.000
    N2452    N        0.42757    0.10375    0.26303    1.000
    N2453    N        0.45135    0.02660    0.29837    1.000
    N2454    N        0.40900    0.02325    0.35643    1.000
    N2455    N        0.40258    0.08836    0.33127    1.000
    Si2456   Si       0.44867    0.13318    0.28787    1.000
    Si2457   Si       0.41178    0.22762    0.30688    1.000
    Si2458   Si       0.42778    0.15817    0.34125    1.000
    N2459    N        0.43035    0.20277    0.33746    1.000
    N2460    N        0.40903    0.14710    0.30230    1.000
    N2461    N        0.45136    0.25025    0.30051    1.000
    N2462    N        0.45685    0.25559    0.36749    1.000
    Si2463   Si       0.41289    0.25807    0.36658    1.000
    Si2464   Si       0.44073    0.08976    0.44942    1.000
    N2465    N        0.43366    0.04717    0.45530    1.000
    N2466    N        0.40609    0.11835    0.44085    1.000
    Si2467   Si       0.43444    0.13918    0.41372    1.000
    N2468    N        0.40990    0.14226    0.37672    1.000
    Si2469   Si       0.40535    0.24677    0.43654    1.000
    Si2470   Si       0.44316    0.19129    0.46627    1.000
    N2471    N        0.40457    0.20776    0.45842    1.000
    N2472    N        0.40829    0.04066    0.52353    1.000
    N2473    N        0.41024    0.10897    0.51438    1.000
    Si2474   Si       0.45098    0.12537    0.50932    1.000
    Si2475   Si       0.42612    0.01412    0.55217    1.000
    N2476    N        0.40524    0.01447    0.59126    1.000
    Si2477   Si       0.42343    0.12730    0.57346    1.000
    N2478    N        0.40233    0.08746    0.57540    1.000
    N2479    N        0.42198    0.12706    0.61847    1.000
    Si2480   Si       0.40033    0.08832    0.61836    1.000
    N2481    N        0.43389    0.20689    0.60292    1.000
    Si2482   Si       0.43015    0.25132    0.53751    1.000
    N2483    N        0.40016    0.15868    0.55709    1.000
    Si2484   Si       0.39775    0.19588    0.57792    1.000
    N2485    N        0.43552    0.16451    0.49632    1.000
    Si2486   Si       0.42613    0.02069    0.63008    1.000
    N2487    N        0.42035    0.04215    0.70779    1.000
    Si2488   Si       0.43168    0.07380    0.68035    1.000
    N2489    N        0.42396    0.06045    0.64011    1.000
    N2490    N        0.40529    0.10854    0.68481    1.000
    N2491    N        0.44134    0.24435    0.66417    1.000
    Si2492   Si       0.44290    0.18796    0.71286    1.000
    N2493    N        0.40660    0.21488    0.71484    1.000
    N2494    N        0.43821    0.17541    0.67026    1.000
    Si2495   Si       0.44983    0.20814    0.64347    1.000
    Si2496   Si       0.41188    0.14321    0.65872    1.000
    N2497    N        0.45612    0.15208    0.73297    1.000
    Si2498   Si       0.40222    0.24448    0.68056    1.000
    N2499    N        0.41474    0.03237    0.84302    1.000
    Si2500   Si       0.44380    0.05643    0.77545    1.000
    N2501    N        0.45781    0.06941    0.81492    1.000
    N2502    N        0.44695    0.09031    0.75017    1.000
    Si2503   Si       0.42346    0.12723    0.75258    1.000
    N2504    N        0.40301    0.03948    0.77554    1.000
    Si2505   Si       0.45729    0.03603    0.84294    1.000
    N2506    N        0.41640    0.16026    0.78310    1.000
    N2507    N        0.44705    0.18102    0.84212    1.000
    Si2508   Si       0.41024    0.19713    0.85890    1.000
    Si2509   Si       0.45604    0.17575    0.79937    1.000
    N2510    N        0.41744    0.09449    0.88468    1.000
    Si2511   Si       0.44272    0.06171    0.95617    1.000
    N2512    N        0.41154    0.03559    0.94298    1.000
    N2513    N        0.42325    0.07718    0.99199    1.000
    Si2514   Si       0.41165    0.13481    0.90151    1.000
    Si2515   Si       0.43498    0.18934    0.98945    1.000
    N2516    N        0.42442    0.21309    0.95535    1.000
    N2517    N        0.45001    0.15087    0.90559    1.000
    N2518    N        0.42540    0.22837    0.88617    1.000
    N2519    N        0.44386    0.14779    0.98057    1.000
    Si2520   Si       0.42050    0.36429    0.07515    1.000
    Si2521   Si       0.41215    0.29324    0.04819    1.000
    N2522    N        0.45087    0.28098    0.06207    1.000
    N2523    N        0.41339    0.28586    0.00457    1.000
    N2524    N        0.40762    0.33581    0.04616    1.000
    Si2525   Si       0.46148    0.26399    0.10064    1.000
    N2526    N        0.46075    0.37704    0.06589    1.000
    Si2527   Si       0.44249    0.47073    0.02022    1.000
    Si2528   Si       0.41374    0.46376    0.08936    1.000
    N2529    N        0.45107    0.46846    0.06416    1.000
    N2530    N        0.40458    0.45182    0.01031    1.000
    N2531    N        0.42444    0.26525    0.12108    1.000
    Si2532   Si       0.43396    0.32633    0.21305    1.000
    N2533    N        0.42931    0.36966    0.22178    1.000
    N2534    N        0.45642    0.30298    0.24220    1.000
    N2535    N        0.45752    0.33016    0.17719    1.000
    Si2536   Si       0.41825    0.39305    0.18620    1.000
    N2537    N        0.41849    0.44731    0.12955    1.000
    N2538    N        0.41909    0.49186    0.21944    1.000
    Si2539   Si       0.41541    0.44986    0.23206    1.000
    N2540    N        0.45567    0.39965    0.16776    1.000
    N2541    N        0.45707    0.43558    0.23454    1.000
    Si2542   Si       0.45733    0.43657    0.14392    1.000
    N2543    N        0.42255    0.31742    0.30218    1.000
    Si2544   Si       0.44295    0.35426    0.31672    1.000
    Si2545   Si       0.43684    0.28419    0.27844    1.000
    N2546    N        0.42330    0.36628    0.35270    1.000
    N2547    N        0.44221    0.39159    0.29328    1.000
    N2548    N        0.43619    0.45349    0.33153    1.000
    Si2549   Si       0.41722    0.42408    0.30619    1.000
    Si2550   Si       0.42481    0.47787    0.36866    1.000
    Si2551   Si       0.45450    0.39450    0.25139    1.000
    N2552    N        0.40848    0.30277    0.37109    1.000
    N2553    N        0.44330    0.26895    0.43412    1.000
    Si2554   Si       0.42726    0.33693    0.38697    1.000
    N2555    N        0.41340    0.36085    0.41940    1.000
    N2556    N        0.44944    0.38394    0.47764    1.000
    N2557    N        0.43478    0.43845    0.45224    1.000
    Si2558   Si       0.42900    0.40315    0.42757    1.000
    Si2559   Si       0.45831    0.42747    0.48709    1.000
    Si2560   Si       0.42009    0.47845    0.44118    1.000
    N2561    N        0.44141    0.49189    0.40657    1.000
    N2562    N        0.43602    0.49796    0.47647    1.000
    N2563    N        0.43033    0.28063    0.57057    1.000
    N2564    N        0.44294    0.35035    0.53824    1.000
    Si2565   Si       0.41117    0.30966    0.59560    1.000
    N2566    N        0.42990    0.27570    0.50016    1.000
    Si2567   Si       0.41290    0.37636    0.56036    1.000
    N2568    N        0.45196    0.32093    0.61262    1.000
    Si2569   Si       0.42153    0.36210    0.50175    1.000
    N2570    N        0.43757    0.40064    0.58636    1.000
    Si2571   Si       0.41442    0.47803    0.51053    1.000
    N2572    N        0.44840    0.45192    0.52197    1.000
    Si2573   Si       0.41691    0.49986    0.58018    1.000
    Si2574   Si       0.40868    0.42229    0.61075    1.000
    N2575    N        0.45898    0.50200    0.56903    1.000
    N2576    N        0.39701    0.39228    0.52298    1.000
    Si2577   Si       0.45357    0.34971    0.64673    1.000
    N2578    N        0.41190    0.35618    0.65661    1.000
    N2579    N        0.45165    0.27991    0.72036    1.000
    Si2580   Si       0.41327    0.28324    0.73896    1.000
    Si2581   Si       0.43094    0.46275    0.67207    1.000
    N2582    N        0.41794    0.42535    0.65295    1.000
    N2583    N        0.42345    0.39136    0.71916    1.000
    Si2584   Si       0.45185    0.42234    0.73068    1.000
    Si2585   Si       0.40227    0.39294    0.67992    1.000
    N2586    N        0.44851    0.49694    0.65349    1.000
    Si2587   Si       0.43434    0.29746    0.85391    1.000
    Si2588   Si       0.42339    0.36733    0.82265    1.000
    N2589    N        0.44528    0.33025    0.82766    1.000
    N2590    N        0.43084    0.26443    0.82669    1.000
    Si2591   Si       0.42113    0.36003    0.74841    1.000
    N2592    N        0.40811    0.38118    0.78442    1.000
    N2593    N        0.43630    0.44335    0.76560    1.000
    Si2594   Si       0.44758    0.43663    0.83708    1.000
    N2595    N        0.40417    0.43690    0.82613    1.000
    Si2596   Si       0.45795    0.47691    0.78147    1.000
    N2597    N        0.45571    0.39542    0.82724    1.000
    Si2598   Si       0.40183    0.42481    0.78479    1.000
    N2599    N        0.44493    0.33134    0.94789    1.000
    Si2600   Si       0.44646    0.30487    0.98118    1.000
    Si2601   Si       0.44284    0.37483    0.94591    1.000
    N2602    N        0.42305    0.37771    0.90649    1.000
    N2603    N        0.44816    0.44457    0.87964    1.000
    N2604    N        0.42021    0.37978    0.98673    1.000
    Si2605   Si       0.40632    0.42143    0.97974    1.000
    Si2606   Si       0.42013    0.42157    0.90234    1.000
    N2607    N        0.43182    0.42803    0.94545    1.000
    Si2608   Si       0.43040    0.53528    0.09928    1.000
    Si2609   Si       0.42151    0.54829    0.02192    1.000
    N2610    N        0.43840    0.55508    0.06004    1.000
    N2611    N        0.44842    0.62485    0.03880    1.000
    N2612    N        0.41213    0.57107    0.11767    1.000
    N2613    N        0.44070    0.51143    0.00457    1.000
    Si2614   Si       0.44536    0.61847    0.99275    1.000
    Si2615   Si       0.41534    0.75498    0.04826    1.000
    N2616    N        0.43073    0.72453    0.07842    1.000
    Si2617   Si       0.40437    0.69352    0.09669    1.000
    Si2618   Si       0.40984    0.63791    0.04668    1.000
    N2619    N        0.42245    0.66137    0.11802    1.000
    N2620    N        0.40447    0.54463    0.17893    1.000
    Si2621   Si       0.42449    0.57681    0.15964    1.000
    N2622    N        0.41047    0.61630    0.16837    1.000
    Si2623   Si       0.43982    0.52518    0.24016    1.000
    Si2624   Si       0.45682    0.66143    0.22701    1.000
    Si2625   Si       0.43087    0.65284    0.16002    1.000
    N2626    N        0.43937    0.75185    0.21845    1.000
    N2627    N        0.43157    0.72904    0.15500    1.000
    Si2628   Si       0.44414    0.71639    0.19482    1.000
    N2629    N        0.42396    0.67620    0.19733    1.000
    N2630    N        0.42013    0.56676    0.31841    1.000
    Si2631   Si       0.41651    0.52381    0.30851    1.000
    N2632    N        0.42129    0.56376    0.25178    1.000
    N2633    N        0.44488    0.51379    0.34277    1.000
    Si2634   Si       0.45419    0.55553    0.34429    1.000
    N2635    N        0.44492    0.50701    0.28050    1.000
    N2636    N        0.44563    0.72521    0.30843    1.000
    N2637    N        0.44336    0.66998    0.26750    1.000
    Si2638   Si       0.41427    0.71891    0.33614    1.000
    N2639    N        0.41969    0.60578    0.43235    1.000
    Si2640   Si       0.40941    0.58252    0.46617    1.000
    N2641    N        0.44748    0.56189    0.38680    1.000
    Si2642   Si       0.45461    0.59968    0.40401    1.000
    Si2643   Si       0.45938    0.67735    0.37924    1.000
    Si2644   Si       0.40871    0.70262    0.46127    1.000
    N2645    N        0.42932    0.70944    0.37664    1.000
    Si2646   Si       0.44774    0.75574    0.48599    1.000
    N2647    N        0.44291    0.63832    0.38370    1.000
    N2648    N        0.44685    0.71287    0.47198    1.000
    Si2649   Si       0.40544    0.63953    0.40635    1.000
    N2650    N        0.39928    0.67489    0.42833    1.000
    N2651    N        0.42173    0.61713    0.55802    1.000
    Si2652   Si       0.40658    0.58957    0.52635    1.000
    N2653    N        0.40661    0.53310    0.60885    1.000
    N2654    N        0.43744    0.57528    0.50099    1.000
    N2655    N        0.45852    0.60479    0.61720    1.000
    N2656    N        0.42168    0.68135    0.54249    1.000
    N2657    N        0.41951    0.74537    0.51989    1.000
    N2658    N        0.40915    0.66295    0.60883    1.000
    N2659    N        0.40615    0.73791    0.59308    1.000
    Si2660   Si       0.41906    0.70471    0.61791    1.000
    Si2661   Si       0.39965    0.65224    0.56652    1.000
    N2662    N        0.45564    0.56149    0.67095    1.000
    Si2663   Si       0.41927    0.62208    0.62629    1.000
    N2664    N        0.41000    0.61614    0.66700    1.000
    Si2665   Si       0.42497    0.53401    0.65181    1.000
    N2666    N        0.45227    0.61367    0.72456    1.000
    N2667    N        0.44596    0.54841    0.74447    1.000
    Si2668   Si       0.43689    0.63948    0.69397    1.000
    Si2669   Si       0.42039    0.71509    0.69650    1.000
    N2670    N        0.41532    0.67206    0.71043    1.000
    N2671    N        0.41099    0.74267    0.72784    1.000
    Si2672   Si       0.42203    0.59170    0.80669    1.000
    Si2673   Si       0.43383    0.52340    0.83885    1.000
    N2674    N        0.44833    0.56516    0.83346    1.000
    Si2675   Si       0.41110    0.53244    0.76439    1.000
    N2676    N        0.42964    0.50671    0.79842    1.000
    Si2677   Si       0.41386    0.57867    0.86969    1.000
    N2678    N        0.45778    0.61079    0.79446    1.000
    N2679    N        0.43321    0.73155    0.79628    1.000
    N2680    N        0.44808    0.67354    0.76424    1.000
    N2681    N        0.40541    0.68136    0.82951    1.000
    Si2682   Si       0.42953    0.67574    0.86396    1.000
    N2683    N        0.45215    0.59030    0.89165    1.000
    N2684    N        0.43567    0.62907    0.95049    1.000
    N2685    N        0.45942    0.51505    0.87466    1.000
    N2686    N        0.44783    0.57368    0.99542    1.000
    Si2687   Si       0.42775    0.75855    0.88957    1.000
    Si2688   Si       0.42023    0.69672    0.92552    1.000
    N2689    N        0.43640    0.71441    0.88720    1.000
    N2690    N        0.41339    0.65768    0.90062    1.000
    N2691    N        0.46134    0.69191    0.93939    1.000
    N2692    N        0.44646    0.77497    0.02414    1.000
    N2693    N        0.40799    0.83390    0.00635    1.000
    N2694    N        0.40490    0.83825    0.11596    1.000
    Si2695   Si       0.40123    0.79537    0.10873    1.000
    N2696    N        0.42110    0.89870    0.07103    1.000
    N2697    N        0.44790    0.93913    0.02298    1.000
    Si2698   Si       0.45202    0.98118    0.01801    1.000
    Si2699   Si       0.40932    0.92587    0.03911    1.000
    N2700    N        0.44004    0.78992    0.12517    1.000
    Si2701   Si       0.44154    0.85111    0.20374    1.000
    Si2702   Si       0.42009    0.78764    0.23435    1.000
    Si2703   Si       0.44842    0.83275    0.12717    1.000
    N2704    N        0.45414    0.87772    0.23632    1.000
    N2705    N        0.45588    0.81368    0.22459    1.000
    N2706    N        0.40708    0.96907    0.11913    1.000
    N2707    N        0.41778    0.92433    0.17596    1.000
    N2708    N        0.45027    0.98279    0.17985    1.000
    Si2709   Si       0.42598    0.00033    0.14583    1.000
    N2710    N        0.45959    0.91202    0.12406    1.000
    Si2711   Si       0.45305    0.94144    0.19358    1.000
    Si2712   Si       0.41794    0.92821    0.13194    1.000
    Si2713   Si       0.42550    0.81668    0.30723    1.000
    N2714    N        0.40847    0.79188    0.27579    1.000
    N2715    N        0.45379    0.84734    0.29288    1.000
    N2716    N        0.45474    0.80528    0.33703    1.000
    Si2717   Si       0.42065    0.94044    0.25695    1.000
    Si2718   Si       0.41649    0.91778    0.33471    1.000
    N2719    N        0.42031    0.91330    0.29075    1.000
    N2720    N        0.45484    0.90203    0.34182    1.000
    N2721    N        0.40316    0.97883    0.26287    1.000
    Si2722   Si       0.42296    0.98444    0.36797    1.000
    N2723    N        0.40139    0.95677    0.34320    1.000
    N2724    N        0.45268    0.77959    0.44934    1.000
    Si2725   Si       0.41139    0.77832    0.43336    1.000
    N2726    N        0.43643    0.85249    0.40102    1.000
    Si2727   Si       0.44353    0.81510    0.37771    1.000
    N2728    N        0.40938    0.79312    0.39208    1.000
    Si2729   Si       0.39792    0.84344    0.42021    1.000
    N2730    N        0.39649    0.81437    0.45225    1.000
    Si2731   Si       0.45547    0.96063    0.41675    1.000
    N2732    N        0.42210    0.93146    0.49050    1.000
    N2733    N        0.41836    0.98129    0.41113    1.000
    Si2734   Si       0.41141    0.91354    0.45320    1.000
    N2735    N        0.44650    0.91773    0.42826    1.000
    N2736    N        0.42619    0.86042    0.58770    1.000
    Si2737   Si       0.42890    0.83574    0.54989    1.000
    N2738    N        0.42578    0.79409    0.56066    1.000
    Si2739   Si       0.42758    0.77667    0.60039    1.000
    Si2740   Si       0.44788    0.75603    0.54917    1.000
    N2741    N        0.45452    0.91136    0.55143    1.000
    Si2742   Si       0.42476    0.90366    0.58156    1.000
    N2743    N        0.42179    0.97576    0.53391    1.000
    Si2744   Si       0.45020    0.94264    0.52361    1.000
    N2745    N        0.42997    0.92665    0.61898    1.000
    N2746    N        0.40416    0.80329    0.62631    1.000
    Si2747   Si       0.42844    0.83940    0.62637    1.000
    Si2748   Si       0.42394    0.78417    0.73137    1.000
    N2749    N        0.42262    0.86338    0.66172    1.000
    N2750    N        0.43572    0.85156    0.72848    1.000
    Si2751   Si       0.40236    0.85218    0.70071    1.000
    N2752    N        0.45688    0.93185    0.69452    1.000
    Si2753   Si       0.43791    0.90539    0.66102    1.000
    N2754    N        0.41645    0.98912    0.66066    1.000
    N2755    N        0.43223    0.97818    0.73646    1.000
    Si2756   Si       0.43413    0.00013    0.69924    1.000
    N2757    N        0.42668    0.79770    0.77338    1.000
    Si2758   Si       0.44014    0.77412    0.80854    1.000
    Si2759   Si       0.42276    0.84007    0.76784    1.000
    Si2760   Si       0.41545    0.81584    0.85818    1.000
    N2761    N        0.44795    0.86326    0.79532    1.000
    N2762    N        0.42534    0.86272    0.86515    1.000
    N2763    N        0.41577    0.76517    0.84615    1.000
    N2764    N        0.45568    0.81348    0.83929    1.000
    Si2765   Si       0.41504    0.90162    0.78283    1.000
    Si2766   Si       0.41234    0.95530    0.84065    1.000
    N2767    N        0.40804    0.91344    0.82291    1.000
    N2768    N        0.45653    0.96083    0.85481    1.000
    N2769    N        0.45094    0.91100    0.75837    1.000
    N2770    N        0.40545    0.97771    0.80436    1.000
    N2771    N        0.41709    0.80460    0.89877    1.000
    Si2772   Si       0.41013    0.87279    0.98802    1.000
    Si2773   Si       0.43327    0.79838    0.99057    1.000
    Si2774   Si       0.42261    0.87979    0.90804    1.000
    N2775    N        0.45268    0.88012    0.99208    1.000
    N2776    N        0.46210    0.81561    0.96211    1.000
    Si2777   Si       0.42480    0.99344    0.94853    1.000
    N2778    N        0.45916    0.98387    0.92337    1.000
    Si2779   Si       0.46089    0.94797    0.89793    1.000
    N2780    N        0.42109    0.98978    0.99261    1.000
    N2781    N        0.42568    0.92166    0.89749    1.000
    Si2782   Si       0.49359    0.08114    0.05454    1.000
    N2783    N        0.47979    0.10694    0.02071    1.000
    N2784    N        0.50996    0.11055    0.08287    1.000
    N2785    N        0.51598    0.04243    0.05963    1.000
    Si2786   Si       0.51938    0.11845    0.00677    1.000
    N2787    N        0.48997    0.23252    0.09471    1.000
    Si2788   Si       0.48838    0.12589    0.11719    1.000
    Si2789   Si       0.48248    0.05092    0.13617    1.000
    Si2790   Si       0.47931    0.08666    0.18760    1.000
    N2791    N        0.48759    0.09439    0.14466    1.000
    N2792    N        0.51452    0.07355    0.21236    1.000
    N2793    N        0.46412    0.04832    0.17704    1.000
    N2794    N        0.46065    0.11992    0.20723    1.000
    N2795    N        0.50801    0.16511    0.12423    1.000
    Si2796   Si       0.48517    0.22639    0.19537    1.000
    N2797    N        0.47334    0.18933    0.20714    1.000
    Si2798   Si       0.48388    0.15149    0.22244    1.000
    Si2799   Si       0.48967    0.20355    0.12665    1.000
    N2800    N        0.51174    0.22236    0.16033    1.000
    N2801    N        0.50168    0.24605    0.23190    1.000
    Si2802   Si       0.49574    0.01796    0.30107    1.000
    N2803    N        0.51174    0.02373    0.34177    1.000
    N2804    N        0.51100    0.08921    0.36340    1.000
    Si2805   Si       0.50331    0.12882    0.34763    1.000
    N2806    N        0.49971    0.20243    0.32666    1.000
    N2807    N        0.47853    0.15661    0.26718    1.000
    Si2808   Si       0.51062    0.17576    0.29303    1.000
    Si2809   Si       0.46696    0.22779    0.33588    1.000
    N2810    N        0.46447    0.13515    0.32921    1.000
    N2811    N        0.49282    0.03147    0.48449    1.000
    N2812    N        0.47039    0.10549    0.47705    1.000
    Si2813   Si       0.49102    0.07864    0.39924    1.000
    N2814    N        0.48049    0.03716    0.40547    1.000
    Si2815   Si       0.47003    0.02567    0.44662    1.000
    Si2816   Si       0.51373    0.10414    0.46440    1.000
    N2817    N        0.45707    0.10168    0.41117    1.000
    N2818    N        0.47077    0.22311    0.47832    1.000
    N2819    N        0.50270    0.15875    0.37943    1.000
    Si2820   Si       0.50216    0.16807    0.42195    1.000
    N2821    N        0.46028    0.16844    0.43219    1.000
    Si2822   Si       0.49299    0.02473    0.59282    1.000
    N2823    N        0.46800    0.02193    0.55616    1.000
    N2824    N        0.50528    0.06433    0.59876    1.000
    N2825    N        0.46187    0.12797    0.55057    1.000
    Si2826   Si       0.47459    0.21799    0.58598    1.000
    Si2827   Si       0.49516    0.21711    0.51514    1.000
    Si2828   Si       0.49844    0.15061    0.55406    1.000
    N2829    N        0.49706    0.18147    0.58408    1.000
    N2830    N        0.50978    0.17612    0.51955    1.000
    N2831    N        0.46509    0.22772    0.54446    1.000
    N2832    N        0.49137    0.25556    0.60168    1.000
    N2833    N        0.46858    0.01122    0.62484    1.000
    N2834    N        0.50500    0.12764    0.62529    1.000
    N2835    N        0.47299    0.08581    0.68755    1.000
    Si2836   Si       0.50297    0.11101    0.66622    1.000
    Si2837   Si       0.48274    0.07591    0.72935    1.000
    N2838    N        0.51384    0.10085    0.74865    1.000
    N2839    N        0.47904    0.21166    0.70811    1.000
    Si2840   Si       0.51519    0.18703    0.70456    1.000
    Si2841   Si       0.51356    0.17069    0.62209    1.000
    N2842    N        0.49327    0.20489    0.64017    1.000
    Si2843   Si       0.47100    0.25172    0.69422    1.000
    Si2844   Si       0.51296    0.24495    0.63773    1.000
    Si2845   Si       0.48593    0.10217    0.82084    1.000
    N2846    N        0.48655    0.01087    0.82179    1.000
    N2847    N        0.48931    0.11564    0.86489    1.000
    Si2848   Si       0.50945    0.03594    0.79500    1.000
    N2849    N        0.48541    0.03706    0.75702    1.000
    N2850    N        0.48264    0.13722    0.79795    1.000
    N2851    N        0.48908    0.23563    0.84766    1.000
    N2852    N        0.47357    0.21160    0.78437    1.000
    Si2853   Si       0.46956    0.24783    0.81124    1.000
    Si2854   Si       0.49430    0.13872    0.75557    1.000
    N2855    N        0.51893    0.17348    0.74592    1.000
    Si2856   Si       0.51614    0.20733    0.77529    1.000
    Si2857   Si       0.46163    0.09126    0.88966    1.000
    Si2858   Si       0.48631    0.01892    0.91259    1.000
    N2859    N        0.47921    0.03713    0.95501    1.000
    N2860    N        0.46844    0.04655    0.88337    1.000
    N2861    N        0.46205    0.09663    0.93545    1.000
    N2862    N        0.48779    0.22551    0.91867    1.000
    Si2863   Si       0.47245    0.15942    0.86994    1.000
    Si2864   Si       0.46883    0.13899    0.94594    1.000
    N2865    N        0.50406    0.16533    0.94984    1.000
    N2866    N        0.51093    0.17726    0.87328    1.000
    Si2867   Si       0.51498    0.19071    0.98440    1.000
    Si2868   Si       0.51255    0.19047    0.91546    1.000
    Si2869   Si       0.46657    0.23159    0.95564    1.000
    N2870    N        0.47537    0.20574    0.99016    1.000
    Si2871   Si       0.46803    0.24372    0.88365    1.000
    Si2872   Si       0.48481    0.29456    0.03868    1.000
    Si2873   Si       0.50931    0.32373    0.10637    1.000
    N2874    N        0.50564    0.32359    0.06255    1.000
    Si2875   Si       0.48406    0.35583    0.03665    1.000
    N2876    N        0.47080    0.32458    0.01054    1.000
    N2877    N        0.51276    0.26223    0.03224    1.000
    N2878    N        0.49059    0.35912    0.12147    1.000
    Si2879   Si       0.49426    0.38993    0.09145    1.000
    N2880    N        0.50891    0.38856    0.02074    1.000
    Si2881   Si       0.49018    0.46034    0.08233    1.000
    N2882    N        0.47863    0.42704    0.10815    1.000
    Si2883   Si       0.50867    0.43334    0.01448    1.000
    N2884    N        0.51390    0.48299    0.11025    1.000
    N2885    N        0.47084    0.44475    0.99701    1.000
    N2886    N        0.48643    0.29135    0.12363    1.000
    Si2887   Si       0.48023    0.36433    0.16268    1.000
    Si2888   Si       0.49858    0.28934    0.23165    1.000
    Si2889   Si       0.47689    0.29195    0.16646    1.000
    N2890    N        0.51478    0.29526    0.18987    1.000
    N2891    N        0.51640    0.48588    0.21951    1.000
    Si2892   Si       0.48974    0.49987    0.14341    1.000
    N2893    N        0.52323    0.42681    0.21286    1.000
    N2894    N        0.47723    0.46717    0.17018    1.000
    Si2895   Si       0.48876    0.45120    0.20986    1.000
    N2896    N        0.48420    0.34112    0.31616    1.000
    Si2897   Si       0.50486    0.34738    0.27740    1.000
    N2898    N        0.49277    0.37567    0.24792    1.000
    N2899    N        0.51919    0.30792    0.26376    1.000
    Si2900   Si       0.46040    0.48278    0.31288    1.000
    N2901    N        0.50030    0.47234    0.30776    1.000
    N2902    N        0.51813    0.37130    0.37128    1.000
    Si2903   Si       0.49479    0.37971    0.46907    1.000
    N2904    N        0.51207    0.35172    0.44046    1.000
    N2905    N        0.46768    0.32524    0.39489    1.000
    Si2906   Si       0.46925    0.28103    0.40077    1.000
    N2907    N        0.50868    0.27620    0.41802    1.000
    Si2908   Si       0.49040    0.36167    0.40397    1.000
    N2909    N        0.49469    0.29131    0.48143    1.000
    Si2910   Si       0.46168    0.26528    0.47182    1.000
    Si2911   Si       0.51619    0.30775    0.44570    1.000
    N2912    N        0.46767    0.39644    0.41273    1.000
    N2913    N        0.50012    0.42272    0.47592    1.000
    N2914    N        0.50748    0.48946    0.45500    1.000
    N2915    N        0.48964    0.30335    0.55035    1.000
    Si2916   Si       0.48523    0.34699    0.54302    1.000
    Si2917   Si       0.47108    0.29002    0.58689    1.000
    N2918    N        0.50652    0.36085    0.50793    1.000
    N2919    N        0.50020    0.37160    0.57427    1.000
    Si2920   Si       0.51610    0.28875    0.51907    1.000
    Si2921   Si       0.48017    0.40203    0.59852    1.000
    N2922    N        0.49266    0.44025    0.58186    1.000
    Si2923   Si       0.47941    0.46700    0.55112    1.000
    N2924    N        0.51357    0.47323    0.52290    1.000
    Si2925   Si       0.51016    0.36296    0.66834    1.000
    N2926    N        0.47667    0.33856    0.68492    1.000
    Si2927   Si       0.47306    0.31698    0.72409    1.000
    N2928    N        0.50480    0.26894    0.67290    1.000
    N2929    N        0.51504    0.30581    0.73200    1.000
    N2930    N        0.48274    0.38068    0.63885    1.000
    N2931    N        0.51460    0.50658    0.69133    1.000
    Si2932   Si       0.49197    0.50357    0.65121    1.000
    N2933    N        0.48732    0.40101    0.74194    1.000
    N2934    N        0.51045    0.46516    0.64146    1.000
    Si2935   Si       0.49649    0.47517    0.71674    1.000
    N2936    N        0.46033    0.45309    0.70196    1.000
    N2937    N        0.48627    0.28342    0.79189    1.000
    Si2938   Si       0.47487    0.32492    0.79663    1.000
    N2939    N        0.50901    0.34759    0.81172    1.000
    Si2940   Si       0.49399    0.37987    0.83500    1.000
    N2941    N        0.45932    0.33875    0.75906    1.000
    N2942    N        0.47721    0.46293    0.81807    1.000
    N2943    N        0.48381    0.49645    0.75296    1.000
    Si2944   Si       0.51739    0.45560    0.83087    1.000
    N2945    N        0.46685    0.27300    0.95901    1.000
    Si2946   Si       0.49895    0.32000    0.87717    1.000
    N2947    N        0.49151    0.36211    0.87524    1.000
    N2948    N        0.50645    0.32565    0.91977    1.000
    Si2949   Si       0.50686    0.37246    0.91222    1.000
    N2950    N        0.46912    0.28733    0.88355    1.000
    Si2951   Si       0.46802    0.30201    0.92612    1.000
    Si2952   Si       0.47609    0.47845    0.89025    1.000
    Si2953   Si       0.47331    0.43382    0.95531    1.000
    N2954    N        0.48345    0.39103    0.94256    1.000
    N2955    N        0.51492    0.47564    0.87077    1.000
    N2956    N        0.48536    0.46941    0.93279    1.000
    Si2957   Si       0.51796    0.48364    0.96100    1.000
    N2958    N        0.50814    0.59046    0.04566    1.000
    N2959    N        0.47212    0.60199    0.09998    1.000
    Si2960   Si       0.46544    0.59045    0.05766    1.000
    Si2961   Si       0.51710    0.61552    0.01203    1.000
    N2962    N        0.47891    0.67135    0.08247    1.000
    Si2963   Si       0.47519    0.71615    0.07825    1.000
    N2964    N        0.49595    0.73303    0.04576    1.000
    N2965    N        0.48805    0.73146    0.11630    1.000
    Si2966   Si       0.45800    0.64275    0.10583    1.000
    N2967    N        0.46582    0.52804    0.12183    1.000
    Si2968   Si       0.48688    0.56922    0.12331    1.000
    N2969    N        0.47529    0.54375    0.22390    1.000
    Si2970   Si       0.48351    0.61482    0.18128    1.000
    N2971    N        0.46781    0.58010    0.16224    1.000
    Si2972   Si       0.51527    0.52935    0.20979    1.000
    N2973    N        0.46391    0.62060    0.21801    1.000
    N2974    N        0.51621    0.52623    0.16679    1.000
    Si2975   Si       0.46019    0.58346    0.24092    1.000
    N2976    N        0.47567    0.64743    0.14990    1.000
    N2977    N        0.51368    0.75455    0.23297    1.000
    Si2978   Si       0.46325    0.75642    0.13994    1.000
    Si2979   Si       0.51278    0.71007    0.23745    1.000
    N2980    N        0.47982    0.69705    0.21426    1.000
    Si2981   Si       0.51773    0.64933    0.14121    1.000
    N2982    N        0.49675    0.56228    0.33370    1.000
    N2983    N        0.48730    0.59121    0.27327    1.000
    Si2984   Si       0.51744    0.58647    0.30568    1.000
    N2985    N        0.47754    0.67519    0.33844    1.000
    Si2986   Si       0.46858    0.69031    0.29659    1.000
    N2987    N        0.50822    0.70012    0.27958    1.000
    N2988    N        0.49182    0.60761    0.42395    1.000
    Si2989   Si       0.50617    0.57646    0.44970    1.000
    N2990    N        0.47429    0.54557    0.44400    1.000
    N2991    N        0.50555    0.51839    0.39090    1.000
    Si2992   Si       0.47523    0.51511    0.47372    1.000
    N2993    N        0.50666    0.59710    0.49042    1.000
    Si2994   Si       0.46580    0.52680    0.40636    1.000
    Si2995   Si       0.51203    0.64636    0.42052    1.000
    Si2996   Si       0.48386    0.69141    0.46191    1.000
    N2997    N        0.50797    0.72591    0.47535    1.000
    N2998    N        0.48110    0.67782    0.42038    1.000
    N2999    N        0.48541    0.66422    0.49821    1.000
    N3000    N        0.47736    0.57194    0.55877    1.000
    Si3001   Si       0.48808    0.53333    0.57719    1.000
    Si3002   Si       0.47915    0.57263    0.51502    1.000
    N3003    N        0.49495    0.53318    0.50513    1.000
    Si3004   Si       0.46220    0.61210    0.57485    1.000
    Si3005   Si       0.50401    0.73628    0.51816    1.000
    Si3006   Si       0.48787    0.71910    0.58984    1.000
    N3007    N        0.47605    0.71787    0.54780    1.000
    N3008    N        0.47964    0.64871    0.56119    1.000
    Si3009   Si       0.46324    0.67609    0.53237    1.000
    N3010    N        0.49316    0.53901    0.62126    1.000
    Si3011   Si       0.48313    0.57677    0.63996    1.000
    N3012    N        0.50528    0.56714    0.72543    1.000
    Si3013   Si       0.46166    0.57309    0.71172    1.000
    N3014    N        0.46210    0.72462    0.68668    1.000
    Si3015   Si       0.47744    0.69299    0.66036    1.000
    N3016    N        0.46304    0.70320    0.62162    1.000
    Si3017   Si       0.48459    0.74856    0.71259    1.000
    N3018    N        0.47006    0.65228    0.66888    1.000
    Si3019   Si       0.48455    0.58746    0.82090    1.000
    N3020    N        0.50616    0.60351    0.85600    1.000
    N3021    N        0.50050    0.55541    0.79461    1.000
    Si3022   Si       0.48891    0.53993    0.75527    1.000
    Si3023   Si       0.46820    0.63487    0.76030    1.000
    N3024    N        0.51036    0.63991    0.76266    1.000
    Si3025   Si       0.50106    0.67848    0.84484    1.000
    N3026    N        0.49501    0.69548    0.80507    1.000
    N3027    N        0.46743    0.65669    0.85952    1.000
    N3028    N        0.49252    0.73134    0.75193    1.000
    Si3029   Si       0.46520    0.71034    0.77724    1.000
    Si3030   Si       0.51586    0.75462    0.78070    1.000
    Si3031   Si       0.47849    0.62282    0.88329    1.000
    Si3032   Si       0.47282    0.55219    0.89796    1.000
    N3033    N        0.50595    0.52162    0.98194    1.000
    Si3034   Si       0.46628    0.53550    0.97724    1.000
    N3035    N        0.48687    0.63498    0.98628    1.000
    N3036    N        0.51673    0.54625    0.89207    1.000
    N3037    N        0.45786    0.54143    0.93618    1.000
    N3038    N        0.50664    0.70997    0.87543    1.000
    Si3039   Si       0.47132    0.65162    0.94782    1.000
    Si3040   Si       0.48219    0.72040    0.91079    1.000
    N3041    N        0.50065    0.63998    0.91632    1.000
    N3042    N        0.52149    0.72801    0.93148    1.000
    N3043    N        0.50613    0.80501    0.04830    1.000
    Si3044   Si       0.50325    0.83014    0.08327    1.000
    Si3045   Si       0.48960    0.77153    0.02585    1.000
    N3046    N        0.46850    0.85237    0.09346    1.000
    N3047    N        0.50866    0.80681    0.11729    1.000
    N3048    N        0.49326    0.89928    0.05414    1.000
    Si3049   Si       0.47727    0.90838    0.01487    1.000
    N3050    N        0.49570    0.98747    0.00892    1.000
    N3051    N        0.50723    0.98031    0.07848    1.000
    Si3052   Si       0.46350    0.89420    0.08378    1.000
    Si3053   Si       0.49516    0.98996    0.11746    1.000
    Si3054   Si       0.49657    0.00730    0.04687    1.000
    N3055    N        0.48674    0.77199    0.17183    1.000
    Si3056   Si       0.47867    0.77546    0.21300    1.000
    N3057    N        0.51132    0.86162    0.23663    1.000
    N3058    N        0.45951    0.85349    0.16458    1.000
    N3059    N        0.48263    0.91258    0.18938    1.000
    N3060    N        0.49343    0.00756    0.22574    1.000
    Si3061   Si       0.49292    0.90264    0.23327    1.000
    Si3062   Si       0.48209    0.89085    0.15366    1.000
    N3063    N        0.45843    0.95086    0.23653    1.000
    Si3064   Si       0.49194    0.82518    0.31748    1.000
    N3065    N        0.50092    0.80917    0.27567    1.000
    Si3066   Si       0.47784    0.84021    0.25485    1.000
    N3067    N        0.50889    0.86306    0.33283    1.000
    N3068    N        0.50499    0.97809    0.28666    1.000
    N3069    N        0.49149    0.90974    0.28261    1.000
    Si3070   Si       0.49521    0.89877    0.35556    1.000
    Si3071   Si       0.49659    0.96872    0.24685    1.000
    Si3072   Si       0.45889    0.88787    0.29827    1.000
    N3073    N        0.48447    0.84897    0.44681    1.000
    Si3074   Si       0.48274    0.80651    0.43600    1.000
    N3075    N        0.48400    0.80662    0.39317    1.000
    Si3076   Si       0.46524    0.87764    0.41767    1.000
    Si3077   Si       0.51582    0.86141    0.47596    1.000
    Si3078   Si       0.49662    0.00855    0.37939    1.000
    N3079    N        0.46602    0.97609    0.37634    1.000
    N3080    N        0.50164    0.89829    0.39877    1.000
    N3081    N        0.47916    0.98247    0.44547    1.000
    Si3082   Si       0.49551    0.81032    0.52514    1.000
    N3083    N        0.47629    0.77144    0.51757    1.000
    Si3084   Si       0.49740    0.79218    0.60462    1.000
    N3085    N        0.46530    0.84270    0.52855    1.000
    N3086    N        0.51125    0.80593    0.56469    1.000
    N3087    N        0.46742    0.76263    0.59121    1.000
    Si3088   Si       0.48410    0.88086    0.53680    1.000
    N3089    N        0.46824    0.82094    0.62369    1.000
    N3090    N        0.48853    0.96296    0.51401    1.000
    Si3091   Si       0.49251    0.00764    0.52336    1.000
    N3092    N        0.49598    0.89488    0.49787    1.000
    Si3093   Si       0.47432    0.83206    0.71715    1.000
    N3094    N        0.50309    0.84264    0.68437    1.000
    Si3095   Si       0.49466    0.85136    0.64322    1.000
    N3096    N        0.46407    0.78908    0.71691    1.000
    N3097    N        0.50255    0.85461    0.74429    1.000
    Si3098   Si       0.49897    0.99913    0.73549    1.000
    N3099    N        0.47758    0.00354    0.69678    1.000
    N3100    N        0.47978    0.89267    0.64942    1.000
    N3101    N        0.50964    0.96014    0.65227    1.000
    Si3102   Si       0.49515    0.00091    0.65841    1.000
    Si3103   Si       0.49463    0.92573    0.67498    1.000
    Si3104   Si       0.46049    0.94438    0.73520    1.000
    Si3105   Si       0.49756    0.80119    0.83026    1.000
    N3106    N        0.48338    0.77215    0.80183    1.000
    N3107    N        0.51234    0.83592    0.80840    1.000
    N3108    N        0.49079    0.87862    0.85343    1.000
    Si3109   Si       0.47828    0.88161    0.77051    1.000
    Si3110   Si       0.45836    0.85710    0.83818    1.000
    Si3111   Si       0.49620    0.97562    0.84580    1.000
    N3112    N        0.49559    0.96184    0.75716    1.000
    N3113    N        0.51192    0.90010    0.79107    1.000
    N3114    N        0.46444    0.86944    0.91759    1.000
    Si3115   Si       0.47136    0.85764    0.95974    1.000
    Si3116   Si       0.48881    0.78515    0.94436    1.000
    N3117    N        0.50252    0.76857    0.98315    1.000
    N3118    N        0.51239    0.85897    0.96387    1.000
    N3119    N        0.46564    0.76134    0.91443    1.000
    N3120    N        0.52309    0.80219    0.91924    1.000
    N3121    N        0.51135    0.92108    0.98941    1.000
    N3122    N        0.49996    0.92823    0.90354    1.000
    N3123    N        0.51051    0.99017    0.88450    1.000
    Si3124   Si       0.49814    0.88508    0.89478    1.000
    Si3125   Si       0.55310    0.10614    0.07409    1.000
    Si3126   Si       0.55468    0.03435    0.07743    1.000
    Si3127   Si       0.56435    0.06155    0.01059    1.000
    N3128    N        0.54454    0.09448    0.03263    1.000
    N3129    N        0.57041    0.07217    0.09181    1.000
    N3130    N        0.57721    0.03114    0.03943    1.000
    Si3131   Si       0.56355    0.17104    0.04123    1.000
    N3132    N        0.56315    0.14710    0.07674    1.000
    N3133    N        0.55177    0.21104    0.05654    1.000
    N3134    N        0.53213    0.16143    0.01135    1.000
    Si3135   Si       0.52386    0.24356    0.07012    1.000
    Si3136   Si       0.55027    0.15882    0.11735    1.000
    Si3137   Si       0.52268    0.03849    0.23776    1.000
    Si3138   Si       0.54391    0.10058    0.22023    1.000
    N3139    N        0.56807    0.03525    0.23480    1.000
    N3140    N        0.56351    0.12421    0.13928    1.000
    N3141    N        0.51992    0.02700    0.13200    1.000
    N3142    N        0.56853    0.19328    0.13403    1.000
    Si3143   Si       0.55284    0.17248    0.22866    1.000
    N3144    N        0.55446    0.20856    0.20339    1.000
    N3145    N        0.52706    0.14004    0.21815    1.000
    Si3146   Si       0.55737    0.22265    0.16249    1.000
    Si3147   Si       0.54091    0.23157    0.23875    1.000
    Si3148   Si       0.55964    0.11555    0.30195    1.000
    N3149    N        0.56291    0.07716    0.31965    1.000
    N3150    N        0.56276    0.09900    0.25990    1.000
    Si3151   Si       0.53752    0.05729    0.34816    1.000
    Si3152   Si       0.56588    0.05406    0.27945    1.000
    N3153    N        0.52325    0.04325    0.27985    1.000
    N3154    N        0.52514    0.13878    0.31179    1.000
    N3155    N        0.53649    0.19454    0.26223    1.000
    N3156    N        0.53972    0.23982    0.36185    1.000
    N3157    N        0.56720    0.17567    0.35939    1.000
    Si3158   Si       0.52548    0.19425    0.36156    1.000
    N3159    N        0.56353    0.25490    0.29629    1.000
    Si3160   Si       0.53426    0.04039    0.49067    1.000
    N3161    N        0.56308    0.04660    0.38225    1.000
    Si3162   Si       0.56322    0.07613    0.41130    1.000
    N3163    N        0.55091    0.01233    0.46158    1.000
    N3164    N        0.52321    0.08211    0.42845    1.000
    N3165    N        0.54073    0.08389    0.49475    1.000
    N3166    N        0.56376    0.20292    0.47849    1.000
    Si3167   Si       0.53603    0.24610    0.40436    1.000
    Si3168   Si       0.54204    0.16734    0.48905    1.000
    N3169    N        0.57293    0.24768    0.42408    1.000
    N3170    N        0.52968    0.20438    0.41513    1.000
    Si3171   Si       0.56856    0.20668    0.43546    1.000
    N3172    N        0.52335    0.14732    0.45490    1.000
    Si3173   Si       0.55927    0.10953    0.52666    1.000
    N3174    N        0.52894    0.11918    0.55763    1.000
    N3175    N        0.53523    0.01905    0.52835    1.000
    Si3176   Si       0.52703    0.10097    0.59719    1.000
    N3177    N        0.56986    0.10005    0.60860    1.000
    N3178    N        0.57558    0.03370    0.59145    1.000
    Si3179   Si       0.55579    0.00633    0.56338    1.000
    N3180    N        0.57422    0.14597    0.51025    1.000
    N3181    N        0.52748    0.24659    0.51720    1.000
    Si3182   Si       0.56996    0.23619    0.50740    1.000
    N3183    N        0.57432    0.12036    0.72881    1.000
    N3184    N        0.52967    0.02641    0.65385    1.000
    Si3185   Si       0.55019    0.05056    0.68261    1.000
    N3186    N        0.54116    0.09060    0.67177    1.000
    N3187    N        0.55589    0.05238    0.72761    1.000
    Si3188   Si       0.56822    0.02115    0.63167    1.000
    Si3189   Si       0.55810    0.12917    0.69041    1.000
    N3190    N        0.51888    0.14761    0.68650    1.000
    Si3191   Si       0.56275    0.23909    0.72465    1.000
    Si3192   Si       0.57042    0.20794    0.65631    1.000
    N3193    N        0.55005    0.20953    0.69467    1.000
    N3194    N        0.55676    0.24148    0.63181    1.000
    N3195    N        0.55717    0.17513    0.63062    1.000
    Si3196   Si       0.56164    0.08730    0.82155    1.000
    N3197    N        0.56676    0.07665    0.86448    1.000
    N3198    N        0.54785    0.01322    0.78550    1.000
    Si3199   Si       0.55472    0.08865    0.74955    1.000
    N3200    N        0.52079    0.07441    0.81284    1.000
    N3201    N        0.57100    0.01063    0.85671    1.000
    Si3202   Si       0.56339    0.01527    0.74408    1.000
    N3203    N        0.55249    0.12950    0.83058    1.000
    Si3204   Si       0.52473    0.21180    0.84789    1.000
    Si3205   Si       0.57097    0.16529    0.81617    1.000
    N3206    N        0.53249    0.24268    0.75694    1.000
    N3207    N        0.53721    0.19388    0.81087    1.000
    N3208    N        0.55843    0.23703    0.85672    1.000
    Si3209   Si       0.52936    0.13651    0.86910    1.000
    Si3210   Si       0.51683    0.05760    0.95635    1.000
    N3211    N        0.54754    0.03683    0.97828    1.000
    N3212    N        0.52937    0.10004    0.96893    1.000
    Si3213   Si       0.55819    0.03983    0.88523    1.000
    N3214    N        0.52504    0.04568    0.91497    1.000
    Si3215   Si       0.57246    0.10624    0.96069    1.000
    N3216    N        0.55888    0.13636    0.90051    1.000
    Si3217   Si       0.56186    0.23798    0.93920    1.000
    N3218    N        0.53705    0.22781    0.97432    1.000
    N3219    N        0.55411    0.19866    0.92138    1.000
    Si3220   Si       0.57855    0.16544    0.92751    1.000
    Si3221   Si       0.56640    0.36674    0.10735    1.000
    N3222    N        0.57203    0.35657    0.01524    1.000
    N3223    N        0.55877    0.26477    0.08911    1.000
    N3224    N        0.55192    0.32594    0.11978    1.000
    Si3225   Si       0.54223    0.26031    0.00147    1.000
    Si3226   Si       0.54742    0.38402    0.03901    1.000
    N3227    N        0.53583    0.38436    0.08097    1.000
    Si3228   Si       0.56721    0.44695    0.06041    1.000
    N3229    N        0.57373    0.41704    0.02780    1.000
    N3230    N        0.57657    0.44246    0.10151    1.000
    N3231    N        0.52189    0.44936    0.05300    1.000
    Si3232   Si       0.57267    0.28876    0.12254    1.000
    N3233    N        0.56223    0.26958    0.22939    1.000
    Si3234   Si       0.56298    0.36058    0.17712    1.000
    N3235    N        0.56495    0.37180    0.22093    1.000
    Si3236   Si       0.55729    0.28630    0.18993    1.000
    N3237    N        0.56736    0.26269    0.15683    1.000
    N3238    N        0.51897    0.36694    0.18123    1.000
    Si3239   Si       0.52377    0.38470    0.22004    1.000
    N3240    N        0.55854    0.45176    0.16131    1.000
    Si3241   Si       0.55343    0.47302    0.12450    1.000
    Si3242   Si       0.54967    0.46157    0.20216    1.000
    N3243    N        0.57656    0.38728    0.14585    1.000
    Si3244   Si       0.55708    0.28959    0.26945    1.000
    Si3245   Si       0.55736    0.27121    0.33824    1.000
    N3246    N        0.53844    0.36746    0.29966    1.000
    N3247    N        0.54269    0.30999    0.34437    1.000
    Si3248   Si       0.52389    0.34780    0.33590    1.000
    Si3249   Si       0.53757    0.46712    0.32877    1.000
    N3250    N        0.56143    0.44408    0.30042    1.000
    Si3251   Si       0.56734    0.39997    0.30432    1.000
    N3252    N        0.53327    0.43901    0.36241    1.000
    N3253    N        0.54997    0.50826    0.33635    1.000
    N3254    N        0.55985    0.31579    0.44999    1.000
    Si3255   Si       0.56169    0.35966    0.44056    1.000
    N3256    N        0.56648    0.37669    0.48042    1.000
    Si3257   Si       0.54814    0.40122    0.37524    1.000
    N3258    N        0.56154    0.39704    0.41652    1.000
    N3259    N        0.56751    0.49568    0.41717    1.000
    N3260    N        0.56697    0.45285    0.48482    1.000
    Si3261   Si       0.52556    0.45820    0.48165    1.000
    N3262    N        0.55291    0.31165    0.52557    1.000
    Si3263   Si       0.54880    0.35399    0.51251    1.000
    N3264    N        0.55961    0.33411    0.59591    1.000
    Si3265   Si       0.54291    0.37226    0.58519    1.000
    N3266    N        0.56479    0.37485    0.54675    1.000
    Si3267   Si       0.57747    0.31501    0.56241    1.000
    N3268    N        0.55242    0.41175    0.60544    1.000
    N3269    N        0.56092    0.48410    0.60738    1.000
    Si3270   Si       0.53319    0.45018    0.60748    1.000
    N3271    N        0.53956    0.32859    0.66485    1.000
    Si3272   Si       0.53285    0.29588    0.69102    1.000
    N3273    N        0.56961    0.27422    0.70232    1.000
    Si3274   Si       0.57294    0.33359    0.63751    1.000
    Si3275   Si       0.52632    0.40914    0.72854    1.000
    N3276    N        0.53532    0.38945    0.69124    1.000
    N3277    N        0.53086    0.45398    0.73335    1.000
    N3278    N        0.55544    0.29992    0.79469    1.000
    Si3279   Si       0.54718    0.33110    0.82648    1.000
    N3280    N        0.53269    0.30473    0.85761    1.000
    Si3281   Si       0.52436    0.28367    0.76844    1.000
    N3282    N        0.57238    0.36036    0.84319    1.000
    Si3283   Si       0.55956    0.47079    0.76256    1.000
    N3284    N        0.54873    0.47449    0.80756    1.000
    N3285    N        0.55732    0.39152    0.75183    1.000
    N3286    N        0.52169    0.41293    0.83789    1.000
    Si3287   Si       0.55515    0.39592    0.86223    1.000
    Si3288   Si       0.57633    0.49770    0.82913    1.000
    Si3289   Si       0.56593    0.27835    0.87008    1.000
    Si3290   Si       0.57643    0.32449    0.98629    1.000
    N3291    N        0.55666    0.27568    0.91321    1.000
    N3292    N        0.54192    0.29678    0.97984    1.000
    Si3293   Si       0.54195    0.30748    0.93719    1.000
    N3294    N        0.57084    0.34065    0.94520    1.000
    N3295    N        0.53445    0.44990    0.98316    1.000
    N3296    N        0.54637    0.38934    0.90409    1.000
    Si3297   Si       0.57519    0.43643    0.98585    1.000
    N3298    N        0.54558    0.49505    0.93064    1.000
    N3299    N        0.54627    0.53671    0.04434    1.000
    Si3300   Si       0.53913    0.57205    0.06840    1.000
    N3301    N        0.52753    0.55961    0.10873    1.000
    Si3302   Si       0.53756    0.54459    0.00092    1.000
    Si3303   Si       0.57672    0.62723    0.10087    1.000
    N3304    N        0.53464    0.63526    0.10411    1.000
    Si3305   Si       0.53927    0.72035    0.04174    1.000
    N3306    N        0.53861    0.69916    0.08341    1.000
    N3307    N        0.53318    0.65028    0.03427    1.000
    Si3308   Si       0.56061    0.66906    0.00221    1.000
    N3309    N        0.53225    0.70548    0.99659    1.000
    Si3310   Si       0.51790    0.66002    0.07190    1.000
    N3311    N        0.55419    0.75841    0.05457    1.000
    N3312    N        0.54332    0.55523    0.23036    1.000
    N3313    N        0.52669    0.61835    0.17395    1.000
    Si3314   Si       0.57130    0.60854    0.17675    1.000
    Si3315   Si       0.54967    0.54038    0.14017    1.000
    N3316    N        0.57479    0.56653    0.16449    1.000
    N3317    N        0.57820    0.50844    0.12623    1.000
    N3318    N        0.53688    0.68590    0.15274    1.000
    Si3319   Si       0.56355    0.68121    0.18426    1.000
    Si3320   Si       0.52870    0.71682    0.12174    1.000
    N3321    N        0.55024    0.75158    0.13793    1.000
    N3322    N        0.55011    0.69090    0.22490    1.000
    N3323    N        0.55851    0.56812    0.29720    1.000
    Si3324   Si       0.57053    0.57955    0.25555    1.000
    Si3325   Si       0.52566    0.53915    0.35604    1.000
    N3326    N        0.57082    0.62237    0.26360    1.000
    N3327    N        0.52945    0.62656    0.31831    1.000
    Si3328   Si       0.55830    0.61045    0.36995    1.000
    Si3329   Si       0.56879    0.63820    0.30350    1.000
    N3330    N        0.53913    0.70034    0.34629    1.000
    Si3331   Si       0.54403    0.71048    0.30275    1.000
    N3332    N        0.54607    0.75288    0.29589    1.000
    N3333    N        0.57612    0.68125    0.29801    1.000
    Si3334   Si       0.51801    0.66087    0.34373    1.000
    N3335    N        0.55273    0.56711    0.37326    1.000
    Si3336   Si       0.52956    0.51384    0.42652    1.000
    Si3337   Si       0.57520    0.56526    0.41291    1.000
    N3338    N        0.54243    0.55638    0.43917    1.000
    Si3339   Si       0.53209    0.74845    0.44691    1.000
    Si3340   Si       0.51980    0.63767    0.49447    1.000
    Si3341   Si       0.56688    0.68423    0.45078    1.000
    N3342    N        0.54787    0.71400    0.42343    1.000
    N3343    N        0.53229    0.64220    0.38061    1.000
    Si3344   Si       0.55887    0.72031    0.37963    1.000
    N3345    N        0.53600    0.65471    0.45627    1.000
    Si3346   Si       0.56315    0.52442    0.58992    1.000
    N3347    N        0.56852    0.56623    0.60600    1.000
    N3348    N        0.52858    0.52382    0.56451    1.000
    N3349    N        0.57046    0.51866    0.50347    1.000
    Si3350   Si       0.52964    0.51499    0.52198    1.000
    N3351    N        0.52818    0.63400    0.60742    1.000
    N3352    N        0.54356    0.64367    0.53268    1.000
    N3353    N        0.54308    0.73395    0.53566    1.000
    N3354    N        0.52649    0.69625    0.58713    1.000
    Si3355   Si       0.56459    0.71572    0.56848    1.000
    Si3356   Si       0.52166    0.65455    0.56987    1.000
    Si3357   Si       0.57414    0.73861    0.50527    1.000
    Si3358   Si       0.55658    0.51550    0.70305    1.000
    N3359    N        0.55693    0.61934    0.71714    1.000
    Si3360   Si       0.53646    0.58370    0.69960    1.000
    N3361    N        0.57008    0.55699    0.69688    1.000
    Si3362   Si       0.55165    0.60137    0.62755    1.000
    N3363    N        0.51922    0.58967    0.65928    1.000
    Si3364   Si       0.53972    0.67507    0.62513    1.000
    N3365    N        0.52028    0.69715    0.65607    1.000
    Si3366   Si       0.53136    0.73919    0.66011    1.000
    N3367    N        0.52284    0.76204    0.69523    1.000
    N3368    N        0.57421    0.61961    0.78958    1.000
    N3369    N        0.57281    0.59376    0.85147    1.000
    Si3370   Si       0.57146    0.63326    0.83252    1.000
    N3371    N        0.57177    0.50824    0.74537    1.000
    Si3372   Si       0.55275    0.63687    0.75778    1.000
    Si3373   Si       0.53793    0.68968    0.79400    1.000
    N3374    N        0.54627    0.73274    0.80337    1.000
    N3375    N        0.54001    0.66400    0.83132    1.000
    N3376    N        0.56351    0.67881    0.76183    1.000
    Si3377   Si       0.56383    0.75532    0.83553    1.000
    N3378    N        0.57487    0.51075    0.87068    1.000
    N3379    N        0.54140    0.58609    0.98740    1.000
    Si3380   Si       0.53972    0.58222    0.87908    1.000
    Si3381   Si       0.56852    0.60286    0.95824    1.000
    N3382    N        0.55570    0.60032    0.91625    1.000
    N3383    N        0.57315    0.52175    0.99064    1.000
    Si3384   Si       0.53815    0.50782    0.89086    1.000
    N3385    N        0.57137    0.75620    0.98280    1.000
    Si3386   Si       0.54418    0.64426    0.92089    1.000
    Si3387   Si       0.54440    0.71530    0.89729    1.000
    N3388    N        0.55789    0.64551    0.96507    1.000
    Si3389   Si       0.53188    0.74041    0.97275    1.000
    N3390    N        0.56620    0.74709    0.87803    1.000
    N3391    N        0.56656    0.67950    0.90351    1.000
    N3392    N        0.53916    0.85341    0.07851    1.000
    Si3393   Si       0.55044    0.80071    0.05391    1.000
    N3394    N        0.57220    0.81654    0.02029    1.000
    N3395    N        0.55333    0.88288    0.01965    1.000
    Si3396   Si       0.53592    0.89330    0.06029    1.000
    Si3397   Si       0.54924    0.96724    0.07064    1.000
    N3398    N        0.55163    0.92485    0.08769    1.000
    N3399    N        0.55172    0.96743    0.02836    1.000
    N3400    N        0.56897    0.99776    0.09894    1.000
    Si3401   Si       0.52337    0.78411    0.15187    1.000
    Si3402   Si       0.55054    0.85497    0.16197    1.000
    N3403    N        0.54352    0.81344    0.17587    1.000
    Si3404   Si       0.55309    0.85170    0.23521    1.000
    N3405    N        0.56592    0.87448    0.19786    1.000
    N3406    N        0.56082    0.80938    0.24169    1.000
    N3407    N        0.52424    0.93598    0.23567    1.000
    N3408    N        0.52472    0.96262    0.13777    1.000
    Si3409   Si       0.54776    0.92465    0.13133    1.000
    N3410    N        0.52631    0.88771    0.14378    1.000
    Si3411   Si       0.55333    0.99787    0.14137    1.000
    Si3412   Si       0.54716    0.84413    0.34653    1.000
    Si3413   Si       0.53302    0.77993    0.26300    1.000
    Si3414   Si       0.55298    0.77231    0.33369    1.000
    N3415    N        0.52676    0.80521    0.33703    1.000
    N3416    N        0.56762    0.88015    0.26489    1.000
    N3417    N        0.56075    0.93594    0.29604    1.000
    Si3418   Si       0.56205    0.92285    0.25300    1.000
    N3419    N        0.52098    0.93321    0.34524    1.000
    Si3420   Si       0.51713    0.93886    0.30167    1.000
    N3421    N        0.57704    0.97801    0.34979    1.000
    N3422    N        0.56378    0.76702    0.47633    1.000
    N3423    N        0.55367    0.83843    0.38860    1.000
    Si3424   Si       0.55046    0.80666    0.46765    1.000
    Si3425   Si       0.52739    0.79851    0.39014    1.000
    N3426    N        0.54685    0.87804    0.44996    1.000
    N3427    N        0.52314    0.78875    0.43519    1.000
    N3428    N        0.54732    0.76171    0.37689    1.000
    N3429    N        0.52505    0.82348    0.49652    1.000
    N3430    N        0.52770    0.93961    0.45673    1.000
    N3431    N        0.52810    0.98701    0.39903    1.000
    N3432    N        0.56447    0.93142    0.40144    1.000
    Si3433   Si       0.54508    0.95844    0.37194    1.000
    Si3434   Si       0.53531    0.91125    0.42550    1.000
    Si3435   Si       0.52464    0.98184    0.44322    1.000
    Si3436   Si       0.53665    0.83830    0.57530    1.000
    N3437    N        0.52199    0.87322    0.55622    1.000
    Si3438   Si       0.54894    0.90544    0.56051    1.000
    N3439    N        0.55161    0.93018    0.52423    1.000
    N3440    N        0.53491    0.92614    0.59499    1.000
    N3441    N        0.52462    0.99377    0.59067    1.000
    Si3442   Si       0.51775    0.93340    0.49874    1.000
    N3443    N        0.52910    0.83883    0.61895    1.000
    Si3444   Si       0.57185    0.76874    0.62417    1.000
    Si3445   Si       0.57380    0.84382    0.62811    1.000
    N3446    N        0.52653    0.76576    0.62265    1.000
    Si3447   Si       0.55319    0.77516    0.72260    1.000
    N3448    N        0.56969    0.87114    0.70728    1.000
    Si3449   Si       0.52551    0.87280    0.71050    1.000
    Si3450   Si       0.53545    0.96156    0.61862    1.000
    N3451    N        0.51931    0.91600    0.70982    1.000
    N3452    N        0.53911    0.98827    0.71943    1.000
    Si3453   Si       0.55019    0.94556    0.71827    1.000
    N3454    N        0.57448    0.97818    0.63121    1.000
    Si3455   Si       0.52900    0.82865    0.77036    1.000
    N3456    N        0.53311    0.78710    0.75750    1.000
    N3457    N        0.56917    0.84580    0.76890    1.000
    N3458    N        0.53415    0.78702    0.84704    1.000
    N3459    N        0.56749    0.86636    0.83538    1.000
    Si3460   Si       0.52546    0.87498    0.82461    1.000
    N3461    N        0.56168    0.94069    0.76179    1.000
    Si3462   Si       0.56135    0.98995    0.82001    1.000
    N3463    N        0.52777    0.96082    0.82270    1.000
    Si3464   Si       0.52344    0.94049    0.78324    1.000
    N3465    N        0.57336    0.82964    0.95679    1.000
    Si3466   Si       0.55134    0.79067    0.88721    1.000
    N3467    N        0.53781    0.86492    0.90031    1.000
    Si3468   Si       0.53704    0.83888    0.93586    1.000
    Si3469   Si       0.57352    0.86127    0.87746    1.000
    Si3470   Si       0.53837    0.88998    0.97944    1.000
    Si3471   Si       0.52636    0.96294    0.99227    1.000
    N3472    N        0.57594    0.89646    0.95294    1.000
    Si3473   Si       0.52727    0.96030    0.91263    1.000
    N3474    N        0.53535    0.97661    0.95194    1.000
    Si3475   Si       0.56757    0.00628    0.95507    1.000
    N3476    N        0.56746    0.95149    0.89716    1.000
    Si3477   Si       0.61230    0.07125    0.10018    1.000
    N3478    N        0.63041    0.03561    0.08276    1.000
    N3479    N        0.60691    0.17582    0.03059    1.000
    N3480    N        0.62348    0.23668    0.07280    1.000
    Si3481   Si       0.58321    0.24327    0.05920    1.000
    Si3482   Si       0.63472    0.19477    0.06495    1.000
    N3483    N        0.63298    0.18069    0.10560    1.000
    N3484    N        0.63154    0.03858    0.19244    1.000
    Si3485   Si       0.59826    0.11417    0.16231    1.000
    N3486    N        0.62004    0.08161    0.14380    1.000
    Si3487   Si       0.59702    0.11946    0.23922    1.000
    Si3488   Si       0.59625    0.01746    0.20779    1.000
    N3489    N        0.58245    0.10335    0.20059    1.000
    N3490    N        0.59589    0.16199    0.23028    1.000
    Si3491   Si       0.62201    0.19265    0.21262    1.000
    N3492    N        0.62589    0.14796    0.16354    1.000
    Si3493   Si       0.61187    0.18367    0.14141    1.000
    N3494    N        0.61609    0.21243    0.17337    1.000
    N3495    N        0.60075    0.03014    0.29322    1.000
    N3496    N        0.62758    0.03146    0.35971    1.000
    Si3497   Si       0.62975    0.04928    0.32128    1.000
    N3498    N        0.63056    0.10279    0.25924    1.000
    Si3499   Si       0.63489    0.12054    0.29953    1.000
    N3500    N        0.59563    0.13828    0.30437    1.000
    Si3501   Si       0.59856    0.17138    0.33230    1.000
    N3502    N        0.61817    0.20624    0.31711    1.000
    Si3503   Si       0.60497    0.24464    0.30973    1.000
    N3504    N        0.62168    0.14905    0.36447    1.000
    Si3505   Si       0.59032    0.01356    0.37358    1.000
    Si3506   Si       0.61777    0.09764    0.42910    1.000
    N3507    N        0.59151    0.06510    0.44325    1.000
    Si3508   Si       0.59157    0.02128    0.44865    1.000
    N3509    N        0.63128    0.01000    0.46610    1.000
    N3510    N        0.58252    0.11461    0.40618    1.000
    N3511    N        0.60027    0.17956    0.42565    1.000
    Si3512   Si       0.58881    0.15447    0.39284    1.000
    N3513    N        0.63705    0.18503    0.48503    1.000
    Si3514   Si       0.63574    0.16777    0.44616    1.000
    N3515    N        0.59462    0.09268    0.54529    1.000
    Si3516   Si       0.59135    0.07398    0.58275    1.000
    N3517    N        0.63279    0.05714    0.57680    1.000
    Si3518   Si       0.62184    0.01289    0.56991    1.000
    Si3519   Si       0.63689    0.08463    0.54158    1.000
    N3520    N        0.61773    0.14535    0.60162    1.000
    Si3521   Si       0.60584    0.17651    0.51455    1.000
    Si3522   Si       0.61427    0.24179    0.56628    1.000
    N3523    N        0.59530    0.21601    0.53651    1.000
    N3524    N        0.62404    0.23382    0.60774    1.000
    Si3525   Si       0.61639    0.02125    0.69496    1.000
    N3526    N        0.58945    0.03645    0.66642    1.000
    Si3527   Si       0.63285    0.23432    0.70277    1.000
    N3528    N        0.63121    0.16280    0.72286    1.000
    N3529    N        0.59513    0.13752    0.66780    1.000
    N3530    N        0.60301    0.22719    0.73577    1.000
    N3531    N        0.61340    0.21837    0.66806    1.000
    Si3532   Si       0.58272    0.13899    0.62592    1.000
    Si3533   Si       0.63393    0.14636    0.68159    1.000
    Si3534   Si       0.62499    0.07361    0.78351    1.000
    N3535    N        0.58284    0.07997    0.78465    1.000
    N3536    N        0.63661    0.11103    0.76253    1.000
    Si3537   Si       0.60951    0.20854    0.77462    1.000
    N3538    N        0.59559    0.23998    0.80049    1.000
    Si3539   Si       0.59834    0.22728    0.84368    1.000
    N3540    N        0.60057    0.18400    0.84201    1.000
    N3541    N        0.59376    0.16845    0.77847    1.000
    Si3542   Si       0.60705    0.13956    0.74900    1.000
    N3543    N        0.63189    0.24109    0.86710    1.000
    N3544    N        0.62232    0.12171    0.86941    1.000
    Si3545   Si       0.61465    0.05074    0.92336    1.000
    N3546    N        0.58823    0.08383    0.92566    1.000
    Si3547   Si       0.58673    0.10611    0.88888    1.000
    N3548    N        0.58620    0.01740    0.91827    1.000
    N3549    N        0.59567    0.08366    0.98999    1.000
    Si3550   Si       0.63163    0.20916    0.93933    1.000
    N3551    N        0.60207    0.23960    0.95485    1.000
    N3552    N        0.61606    0.17924    0.91064    1.000
    Si3553   Si       0.62735    0.16563    0.87107    1.000
    N3554    N        0.58754    0.14532    0.96448    1.000
    Si3555   Si       0.61892    0.15597    0.99239    1.000
    N3556    N        0.60515    0.36195    0.09022    1.000
    N3557    N        0.63370    0.36152    0.02569    1.000
    Si3558   Si       0.63728    0.34557    0.06472    1.000
    N3559    N        0.58179    0.25868    0.01903    1.000
    N3560    N        0.59346    0.47897    0.04928    1.000
    Si3561   Si       0.60377    0.38764    0.00868    1.000
    Si3562   Si       0.63171    0.49736    0.06132    1.000
    N3563    N        0.63572    0.42276    0.00234    1.000
    N3564    N        0.61693    0.29400    0.12322    1.000
    Si3565   Si       0.62331    0.31457    0.16176    1.000
    N3566    N        0.58366    0.32042    0.18047    1.000
    N3567    N        0.63130    0.33677    0.23899    1.000
    N3568    N        0.58492    0.46359    0.22469    1.000
    N3569    N        0.62001    0.46593    0.15778    1.000
    Si3570   Si       0.62159    0.47426    0.20130    1.000
    Si3571   Si       0.62086    0.49997    0.13179    1.000
    Si3572   Si       0.59490    0.42848    0.14268    1.000
    N3573    N        0.60132    0.27529    0.34170    1.000
    Si3574   Si       0.63011    0.30874    0.27315    1.000
    N3575    N        0.62804    0.26574    0.27999    1.000
    N3576    N        0.58689    0.31906    0.27233    1.000
    N3577    N        0.62902    0.33979    0.36874    1.000
    Si3578   Si       0.62277    0.38157    0.35584    1.000
    Si3579   Si       0.59187    0.35507    0.24789    1.000
    N3580    N        0.58542    0.50718    0.27679    1.000
    N3581    N        0.59468    0.38896    0.27475    1.000
    N3582    N        0.62378    0.44945    0.27580    1.000
    Si3583   Si       0.58511    0.46384    0.26994    1.000
    Si3584   Si       0.63283    0.40759    0.28209    1.000
    N3585    N        0.58052    0.39133    0.34692    1.000
    N3586    N        0.60676    0.35692    0.43004    1.000
    Si3587   Si       0.58744    0.28285    0.44498    1.000
    N3588    N        0.62792    0.29281    0.42794    1.000
    N3589    N        0.59421    0.26766    0.48520    1.000
    Si3590   Si       0.63566    0.33239    0.41093    1.000
    Si3591   Si       0.59424    0.48569    0.49124    1.000
    Si3592   Si       0.60541    0.40040    0.42086    1.000
    Si3593   Si       0.58501    0.41361    0.48565    1.000
    N3594    N        0.62153    0.48592    0.45898    1.000
    N3595    N        0.61821    0.41947    0.45668    1.000
    N3596    N        0.63030    0.41080    0.38720    1.000
    Si3597   Si       0.61179    0.50171    0.41879    1.000
    N3598    N        0.63399    0.48461    0.38348    1.000
    N3599    N        0.61223    0.33239    0.54519    1.000
    N3600    N        0.58821    0.27595    0.57802    1.000
    Si3601   Si       0.61076    0.37622    0.54557    1.000
    Si3602   Si       0.59288    0.26245    0.62036    1.000
    N3603    N        0.61942    0.39093    0.58596    1.000
    N3604    N        0.60928    0.41239    0.52069    1.000
    N3605    N        0.61996    0.47901    0.52686    1.000
    Si3606   Si       0.59316    0.40271    0.61868    1.000
    N3607    N        0.59866    0.33773    0.70550    1.000
    Si3608   Si       0.60298    0.29682    0.68939    1.000
    N3609    N        0.59803    0.29849    0.64483    1.000
    N3610    N        0.58680    0.37187    0.64872    1.000
    Si3611   Si       0.62407    0.34474    0.73982    1.000
    Si3612   Si       0.57807    0.37468    0.69123    1.000
    N3613    N        0.58296    0.49357    0.67816    1.000
    N3614    N        0.60505    0.40463    0.70543    1.000
    N3615    N        0.60212    0.43892    0.64222    1.000
    Si3616   Si       0.62753    0.50204    0.68183    1.000
    Si3617   Si       0.62589    0.42868    0.67534    1.000
    Si3618   Si       0.59252    0.48103    0.63676    1.000
    Si3619   Si       0.59745    0.28452    0.79905    1.000
    N3620    N        0.61880    0.31002    0.76726    1.000
    N3621    N        0.59978    0.29271    0.84546    1.000
    Si3622   Si       0.61119    0.37544    0.86070    1.000
    N3623    N        0.62622    0.38006    0.76512    1.000
    N3624    N        0.61302    0.47267    0.82753    1.000
    N3625    N        0.59629    0.44879    0.76522    1.000
    Si3626   Si       0.62528    0.44740    0.85923    1.000
    Si3627   Si       0.62932    0.46241    0.78781    1.000
    N3628    N        0.59496    0.41709    0.86184    1.000
    Si3629   Si       0.59681    0.40888    0.74911    1.000
    Si3630   Si       0.58113    0.37955    0.92877    1.000
    N3631    N        0.61695    0.30778    0.98611    1.000
    N3632    N        0.61588    0.36962    0.90359    1.000
    Si3633   Si       0.61199    0.26378    0.98833    1.000
    N3634    N        0.58795    0.40056    0.96635    1.000
    Si3635   Si       0.58340    0.50217    0.95347    1.000
    Si3636   Si       0.63658    0.44284    0.96265    1.000
    N3637    N        0.63406    0.47868    0.89035    1.000
    N3638    N        0.60177    0.46570    0.96498    1.000
    Si3639   Si       0.61997    0.57755    0.06224    1.000
    N3640    N        0.61472    0.53655    0.05504    1.000
    Si3641   Si       0.58267    0.51814    0.03283    1.000
    N3642    N        0.58017    0.59102    0.07655    1.000
    N3643    N        0.60604    0.65494    0.08150    1.000
    N3644    N        0.59976    0.64884    0.01251    1.000
    Si3645   Si       0.60034    0.73635    0.00714    1.000
    Si3646   Si       0.60956    0.67507    0.04434    1.000
    N3647    N        0.61156    0.74056    0.11205    1.000
    N3648    N        0.58203    0.70335    0.02932    1.000
    N3649    N        0.61528    0.75862    0.04265    1.000
    N3650    N        0.61511    0.51752    0.20413    1.000
    Si3651   Si       0.61316    0.55357    0.17828    1.000
    N3652    N        0.59050    0.62851    0.14131    1.000
    N3653    N        0.62738    0.59593    0.18900    1.000
    Si3654   Si       0.61250    0.52504    0.24753    1.000
    N3655    N        0.61271    0.56836    0.24903    1.000
    Si3656   Si       0.57961    0.66068    0.24063    1.000
    N3657    N        0.58400    0.64577    0.19894    1.000
    Si3658   Si       0.62771    0.70114    0.20985    1.000
    Si3659   Si       0.59060    0.74443    0.15038    1.000
    Si3660   Si       0.62420    0.63511    0.17018    1.000
    N3661    N        0.59683    0.70907    0.17743    1.000
    N3662    N        0.61497    0.68428    0.24811    1.000
    N3663    N        0.62081    0.53619    0.33355    1.000
    N3664    N        0.58804    0.62097    0.34196    1.000
    Si3665   Si       0.58041    0.53354    0.31502    1.000
    Si3666   Si       0.62902    0.63309    0.34460    1.000
    Si3667   Si       0.61941    0.69013    0.29142    1.000
    Si3668   Si       0.62091    0.74528    0.34856    1.000
    N3669    N        0.61269    0.57903    0.47540    1.000
    N3670    N        0.61580    0.54542    0.41752    1.000
    N3671    N        0.58320    0.60894    0.40836    1.000
    Si3672   Si       0.61747    0.63205    0.41934    1.000
    Si3673   Si       0.62537    0.69050    0.39981    1.000
    N3674    N        0.58077    0.70008    0.48709    1.000
    N3675    N        0.60389    0.67014    0.43274    1.000
    N3676    N        0.60141    0.71686    0.37512    1.000
    N3677    N        0.63577    0.65182    0.38199    1.000
    N3678    N        0.59231    0.62243    0.58284    1.000
    N3679    N        0.60057    0.52942    0.56716    1.000
    Si3680   Si       0.60361    0.57697    0.57761    1.000
    Si3681   Si       0.60016    0.55193    0.50917    1.000
    N3682    N        0.60014    0.58620    0.53530    1.000
    Si3683   Si       0.62743    0.60708    0.50442    1.000
    Si3684   Si       0.63415    0.51255    0.54914    1.000
    Si3685   Si       0.58500    0.64204    0.54386    1.000
    N3686    N        0.61615    0.64725    0.51165    1.000
    Si3687   Si       0.61274    0.68960    0.51269    1.000
    N3688    N        0.59313    0.68670    0.55376    1.000
    N3689    N        0.58592    0.75146    0.58771    1.000
    N3690    N        0.61139    0.74898    0.52316    1.000
    Si3691   Si       0.60375    0.64247    0.61926    1.000
    Si3692   Si       0.60834    0.56972    0.71021    1.000
    N3693    N        0.62347    0.60883    0.70217    1.000
    N3694    N        0.58108    0.62133    0.65069    1.000
    N3695    N        0.62642    0.50959    0.63745    1.000
    Si3696   Si       0.58826    0.63563    0.69114    1.000
    Si3697   Si       0.62268    0.74881    0.72655    1.000
    Si3698   Si       0.59725    0.70152    0.65914    1.000
    N3699    N        0.59046    0.67864    0.69533    1.000
    N3700    N        0.58216    0.67953    0.62418    1.000
    N3701    N        0.57972    0.74070    0.73185    1.000
    Si3702   Si       0.58704    0.69861    0.73410    1.000
    N3703    N        0.63235    0.70609    0.73808    1.000
    N3704    N        0.57455    0.73785    0.65574    1.000
    Si3705   Si       0.60311    0.56440    0.83531    1.000
    Si3706   Si       0.61392    0.60613    0.77809    1.000
    Si3707   Si       0.60198    0.52996    0.76934    1.000
    N3708    N        0.60731    0.57091    0.75361    1.000
    N3709    N        0.58607    0.53519    0.80814    1.000
    N3710    N        0.63124    0.58985    0.81437    1.000
    N3711    N        0.63317    0.54539    0.86460    1.000
    N3712    N        0.60582    0.65758    0.84712    1.000
    Si3713   Si       0.63617    0.75223    0.79778    1.000
    N3714    N        0.63459    0.70895    0.80353    1.000
    N3715    N        0.63556    0.64040    0.76179    1.000
    Si3716   Si       0.63058    0.56079    0.95034    1.000
    N3717    N        0.60688    0.52988    0.93100    1.000
    Si3718   Si       0.61291    0.51622    0.88984    1.000
    N3719    N        0.60939    0.59493    0.96671    1.000
    Si3720   Si       0.62976    0.62472    0.99345    1.000
    Si3721   Si       0.60650    0.67299    0.88782    1.000
    N3722    N        0.63290    0.72539    0.97990    1.000
    N3723    N        0.63247    0.70668    0.87892    1.000
    N3724    N        0.60381    0.86186    0.06545    1.000
    Si3725   Si       0.58784    0.85660    0.02600    1.000
    N3726    N        0.58068    0.80215    0.08727    1.000
    Si3727   Si       0.57956    0.84353    0.09608    1.000
    Si3728   Si       0.59285    0.76096    0.07943    1.000
    N3729    N        0.61536    0.97495    0.05519    1.000
    Si3730   Si       0.61242    0.99689    0.09246    1.000
    Si3731   Si       0.58832    0.99139    0.02486    1.000
    N3732    N        0.58673    0.85129    0.13796    1.000
    N3733    N        0.60498    0.77603    0.17554    1.000
    N3734    N        0.61545    0.83160    0.20384    1.000
    Si3735   Si       0.62294    0.84965    0.16407    1.000
    Si3736   Si       0.57968    0.80319    0.20090    1.000
    N3737    N        0.63531    0.97687    0.12293    1.000
    N3738    N        0.63331    0.88940    0.17356    1.000
    N3739    N        0.58419    0.99586    0.17080    1.000
    N3740    N        0.63077    0.99236    0.23873    1.000
    N3741    N        0.58335    0.93160    0.15584    1.000
    N3742    N        0.59663    0.92812    0.22906    1.000
    Si3743   Si       0.63337    0.94942    0.22972    1.000
    Si3744   Si       0.59650    0.90679    0.18990    1.000
    Si3745   Si       0.61252    0.96575    0.15790    1.000
    N3746    N        0.59660    0.77799    0.33525    1.000
    Si3747   Si       0.61088    0.81426    0.31662    1.000
    N3748    N        0.61733    0.82770    0.27503    1.000
    Si3749   Si       0.59901    0.86466    0.29145    1.000
    N3750    N        0.58344    0.84539    0.32676    1.000
    N3751    N        0.61394    0.92166    0.35269    1.000
    Si3752   Si       0.59166    0.94635    0.32353    1.000
    N3753    N        0.62432    0.95866    0.29598    1.000
    Si3754   Si       0.62937    0.99976    0.28226    1.000
    N3755    N        0.62625    0.76142    0.43729    1.000
    Si3756   Si       0.62099    0.79884    0.45641    1.000
    N3757    N        0.58480    0.82477    0.45174    1.000
    N3758    N        0.60997    0.88130    0.41480    1.000
    Si3759   Si       0.57499    0.85597    0.42328    1.000
    Si3760   Si       0.60730    0.92089    0.39479    1.000
    N3761    N        0.60338    0.00093    0.41209    1.000
    Si3762   Si       0.62007    0.84473    0.57172    1.000
    Si3763   Si       0.62115    0.76295    0.56369    1.000
    N3764    N        0.63179    0.80399    0.56207    1.000
    N3765    N        0.57897    0.83953    0.58247    1.000
    N3766    N        0.59115    0.98134    0.55932    1.000
    Si3767   Si       0.59312    0.94219    0.53942    1.000
    N3768    N        0.59345    0.91075    0.56907    1.000
    Si3769   Si       0.60870    0.90131    0.61029    1.000
    N3770    N        0.62608    0.94147    0.51204    1.000
    Si3771   Si       0.61258    0.80079    0.67696    1.000
    Si3772   Si       0.58808    0.84048    0.73067    1.000
    N3773    N        0.58799    0.80448    0.64026    1.000
    N3774    N        0.63042    0.84380    0.73760    1.000
    N3775    N        0.58240    0.80462    0.70782    1.000
    N3776    N        0.58269    0.88345    0.64068    1.000
    Si3777   Si       0.60525    0.96004    0.65646    1.000
    N3778    N        0.58229    0.94009    0.68841    1.000
    Si3779   Si       0.59233    0.89769    0.68079    1.000
    N3780    N        0.63288    0.93251    0.63192    1.000
    N3781    N        0.63363    0.98600    0.67546    1.000
    N3782    N        0.63569    0.89453    0.68709    1.000
    N3783    N        0.60558    0.00705    0.73513    1.000
    Si3784   Si       0.59432    0.86255    0.79855    1.000
    Si3785   Si       0.61250    0.80579    0.84166    1.000
    N3786    N        0.62467    0.83086    0.80801    1.000
    N3787    N        0.60350    0.76687    0.82381    1.000
    N3788    N        0.63467    0.77446    0.76105    1.000
    N3789    N        0.60030    0.97060    0.81239    1.000
    N3790    N        0.61218    0.90116    0.79353    1.000
    Si3791   Si       0.59891    0.94096    0.78130    1.000
    N3792    N        0.62644    0.79212    0.98452    1.000
    Si3793   Si       0.60383    0.86019    0.95731    1.000
    Si3794   Si       0.62510    0.80692    0.90298    1.000
    N3795    N        0.58643    0.81646    0.87878    1.000
    Si3796   Si       0.58406    0.79739    0.98380    1.000
    N3797    N        0.63592    0.76747    0.91920    1.000
    N3798    N        0.63342    0.83735    0.93360    1.000
    N3799    N        0.61641    0.86531    0.99749    1.000
    N3800    N        0.60184    0.89205    0.88893    1.000
    Si3801   Si       0.62892    0.96516    0.97536    1.000
    N3802    N        0.62219    0.94669    0.93724    1.000
    N3803    N        0.63344    0.97976    0.88019    1.000
    N3804    N        0.59805    0.99170    0.98343    1.000
    Si3805   Si       0.59078    0.98588    0.88722    1.000
    Si3806   Si       0.59109    0.92019    0.91898    1.000
    Si3807   Si       0.66293    0.03900    0.05211    1.000
    Si3808   Si       0.67937    0.10737    0.01624    1.000
    Si3809   Si       0.67779    0.09863    0.08612    1.000
    N3810    N        0.65889    0.06761    0.01967    1.000
    N3811    N        0.63530    0.10118    0.08408    1.000
    N3812    N        0.67264    0.19238    0.04351    1.000
    Si3813   Si       0.66551    0.21004    0.00377    1.000
    N3814    N        0.65033    0.24974    0.00346    1.000
    N3815    N        0.67735    0.04550    0.24002    1.000
    Si3816   Si       0.66707    0.09070    0.23870    1.000
    N3817    N        0.66824    0.10209    0.19654    1.000
    Si3818   Si       0.65291    0.06898    0.16957    1.000
    Si3819   Si       0.66156    0.01357    0.21618    1.000
    N3820    N        0.68887    0.04959    0.15378    1.000
    Si3821   Si       0.64690    0.24034    0.18472    1.000
    N3822    N        0.64209    0.23156    0.22598    1.000
    N3823    N        0.68302    0.23136    0.16141    1.000
    N3824    N        0.65771    0.16832    0.21918    1.000
    Si3825   Si       0.66417    0.14520    0.18233    1.000
    Si3826   Si       0.68797    0.18460    0.24852    1.000
    N3827    N        0.66456    0.02796    0.30345    1.000
    Si3828   Si       0.64766    0.11456    0.36854    1.000
    N3829    N        0.64274    0.08930    0.32947    1.000
    N3830    N        0.69160    0.09433    0.27261    1.000
    N3831    N        0.69493    0.05993    0.36138    1.000
    Si3832   Si       0.69592    0.05098    0.27743    1.000
    N3833    N        0.66452    0.15100    0.30387    1.000
    N3834    N        0.67799    0.19910    0.35237    1.000
    Si3835   Si       0.65955    0.19293    0.31508    1.000
    N3836    N        0.67601    0.21377    0.28009    1.000
    Si3837   Si       0.66321    0.24996    0.26097    1.000
    Si3838   Si       0.68967    0.24148    0.36135    1.000
    Si3839   Si       0.66703    0.10668    0.47761    1.000
    Si3840   Si       0.65855    0.04548    0.38729    1.000
    N3841    N        0.64306    0.08261    0.39862    1.000
    N3842    N        0.67327    0.00975    0.40416    1.000
    N3843    N        0.68741    0.12975    0.37786    1.000
    N3844    N        0.63758    0.12570    0.45208    1.000
    Si3845   Si       0.65446    0.02906    0.49706    1.000
    N3846    N        0.69087    0.24814    0.40527    1.000
    N3847    N        0.68985    0.13867    0.49687    1.000
    N3848    N        0.66977    0.18268    0.42334    1.000
    N3849    N        0.66209    0.25090    0.46708    1.000
    Si3850   Si       0.68358    0.22324    0.44054    1.000
    Si3851   Si       0.69221    0.17271    0.38810    1.000
    N3852    N        0.66476    0.10911    0.56449    1.000
    Si3853   Si       0.66798    0.08134    0.59888    1.000
    N3854    N        0.65011    0.07412    0.50092    1.000
    Si3855   Si       0.65238    0.14912    0.57650    1.000
    Si3856   Si       0.67010    0.17560    0.51222    1.000
    N3857    N        0.68258    0.17603    0.59177    1.000
    N3858    N        0.63968    0.16587    0.54050    1.000
    Si3859   Si       0.67095    0.02400    0.62121    1.000
    N3860    N        0.69113    0.11667    0.62533    1.000
    Si3861   Si       0.68199    0.03945    0.73549    1.000
    Si3862   Si       0.66711    0.07397    0.67609    1.000
    N3863    N        0.65479    0.10978    0.69404    1.000
    N3864    N        0.65199    0.04364    0.70197    1.000
    Si3865   Si       0.67042    0.11694    0.73468    1.000
    N3866    N        0.65519    0.06242    0.63684    1.000
    N3867    N        0.65655    0.17106    0.65348    1.000
    Si3868   Si       0.64591    0.21325    0.64021    1.000
    Si3869   Si       0.69356    0.15999    0.63152    1.000
    N3870    N        0.68505    0.23275    0.64724    1.000
    N3871    N        0.67127    0.21312    0.70763    1.000
    Si3872   Si       0.66543    0.18424    0.73953    1.000
    Si3873   Si       0.67229    0.04368    0.80927    1.000
    Si3874   Si       0.64806    0.08784    0.86215    1.000
    N3875    N        0.65121    0.03662    0.77108    1.000
    N3876    N        0.64376    0.07416    0.82197    1.000
    N3877    N        0.69010    0.09278    0.86523    1.000
    N3878    N        0.66515    0.00676    0.83222    1.000
    N3879    N        0.65288    0.21036    0.77387    1.000
    Si3880   Si       0.67252    0.24721    0.77958    1.000
    N3881    N        0.66995    0.18161    0.86316    1.000
    N3882    N        0.69248    0.15289    0.74898    1.000
    Si3883   Si       0.63870    0.08204    0.98477    1.000
    Si3884   Si       0.65584    0.01406    0.87341    1.000
    N3885    N        0.64498    0.05433    0.95312    1.000
    Si3886   Si       0.68349    0.03777    0.93809    1.000
    N3887    N        0.64921    0.12496    0.99045    1.000
    N3888    N        0.63660    0.05274    0.88709    1.000
    N3889    N        0.66482    0.22966    0.92333    1.000
    Si3890   Si       0.67020    0.22376    0.87961    1.000
    N3891    N        0.64074    0.18796    0.97548    1.000
    Si3892   Si       0.66523    0.28073    0.02930    1.000
    N3893    N        0.66753    0.36531    0.08774    1.000
    N3894    N        0.68207    0.31579    0.01023    1.000
    N3895    N        0.68279    0.26977    0.10543    1.000
    Si3896   Si       0.64120    0.27256    0.09305    1.000
    N3897    N        0.64263    0.30190    0.06090    1.000
    Si3898   Si       0.63764    0.37498    0.11858    1.000
    N3899    N        0.64856    0.48577    0.09972    1.000
    N3900    N        0.65957    0.48941    0.02899    1.000
    Si3901   Si       0.66804    0.44902    0.01830    1.000
    Si3902   Si       0.69258    0.48358    0.10909    1.000
    Si3903   Si       0.67928    0.30125    0.20793    1.000
    N3904    N        0.68643    0.34337    0.20388    1.000
    Si3905   Si       0.66833    0.36094    0.23915    1.000
    N3906    N        0.64813    0.34912    0.15263    1.000
    N3907    N        0.64848    0.28475    0.18190    1.000
    Si3908   Si       0.68638    0.36413    0.16589    1.000
    N3909    N        0.63818    0.41478    0.13593    1.000
    Si3910   Si       0.68514    0.42767    0.22725    1.000
    N3911    N        0.69443    0.40727    0.17622    1.000
    N3912    N        0.65912    0.45357    0.20288    1.000
    Si3913   Si       0.66253    0.44015    0.16029    1.000
    N3914    N        0.69710    0.46080    0.14492    1.000
    N3915    N        0.65740    0.40123    0.24696    1.000
    Si3916   Si       0.67491    0.36179    0.30886    1.000
    N3917    N        0.67156    0.28047    0.35105    1.000
    N3918    N        0.64716    0.32805    0.30896    1.000
    Si3919   Si       0.63417    0.30283    0.34290    1.000
    N3920    N        0.68243    0.28872    0.24841    1.000
    N3921    N        0.69415    0.35203    0.27225    1.000
    Si3922   Si       0.64660    0.50285    0.34687    1.000
    N3923    N        0.64888    0.39480    0.32182    1.000
    Si3924   Si       0.67492    0.43215    0.32891    1.000
    N3925    N        0.66282    0.47176    0.32109    1.000
    Si3926   Si       0.65997    0.47527    0.27689    1.000
    N3927    N        0.69588    0.46378    0.25834    1.000
    N3928    N        0.68976    0.43501    0.36748    1.000
    Si3929   Si       0.66647    0.29314    0.45021    1.000
    N3930    N        0.67301    0.33917    0.43281    1.000
    N3931    N        0.65323    0.30740    0.49258    1.000
    Si3932   Si       0.63651    0.26713    0.49810    1.000
    N3933    N        0.67459    0.45281    0.42955    1.000
    Si3934   Si       0.65532    0.44721    0.39174    1.000
    Si3935   Si       0.64719    0.44965    0.46262    1.000
    Si3936   Si       0.65302    0.32989    0.52984    1.000
    N3937    N        0.67934    0.31073    0.56063    1.000
    N3938    N        0.65908    0.37155    0.54110    1.000
    N3939    N        0.68262    0.36891    0.60524    1.000
    Si3940   Si       0.68392    0.27036    0.54728    1.000
    N3941    N        0.64496    0.25498    0.53878    1.000
    Si3942   Si       0.69309    0.46955    0.57873    1.000
    N3943    N        0.66480    0.50557    0.57918    1.000
    Si3944   Si       0.66313    0.39573    0.57601    1.000
    N3945    N        0.66630    0.43789    0.56700    1.000
    Si3946   Si       0.63962    0.44059    0.53357    1.000
    N3947    N        0.66957    0.44383    0.50105    1.000
    N3948    N        0.64066    0.27633    0.69807    1.000
    Si3949   Si       0.67736    0.29547    0.71281    1.000
    N3950    N        0.66593    0.33712    0.72294    1.000
    Si3951   Si       0.69099    0.38494    0.64498    1.000
    Si3952   Si       0.68100    0.44241    0.69433    1.000
    N3953    N        0.64340    0.46426    0.69385    1.000
    N3954    N        0.66641    0.41709    0.66133    1.000
    Si3955   Si       0.66140    0.30840    0.77794    1.000
    Si3956   Si       0.67815    0.35374    0.85908    1.000
    N3957    N        0.65436    0.27480    0.80866    1.000
    N3958    N        0.68169    0.34797    0.78520    1.000
    N3959    N        0.66963    0.31149    0.86228    1.000
    N3960    N        0.64578    0.37214    0.83818    1.000
    N3961    N        0.68231    0.27929    0.75167    1.000
    Si3962   Si       0.64103    0.28116    0.85035    1.000
    Si3963   Si       0.65298    0.38543    0.79651    1.000
    N3964    N        0.66008    0.43136    0.79329    1.000
    N3965    N        0.67142    0.44200    0.85820    1.000
    Si3966   Si       0.69065    0.44866    0.82070    1.000
    N3967    N        0.69906    0.49237    0.81402    1.000
    N3968    N        0.63691    0.50495    0.77769    1.000
    N3969    N        0.66374    0.36459    0.96429    1.000
    N3970    N        0.68659    0.36545    0.89955    1.000
    Si3971   Si       0.64887    0.33658    0.99343    1.000
    Si3972   Si       0.65368    0.38020    0.92332    1.000
    Si3973   Si       0.66917    0.45411    0.90104    1.000
    N3974    N        0.67404    0.46546    0.97483    1.000
    Si3975   Si       0.67079    0.50821    0.98809    1.000
    N3976    N        0.65006    0.42428    0.92719    1.000
    Si3977   Si       0.67078    0.57246    0.01130    1.000
    Si3978   Si       0.68189    0.60027    0.07287    1.000
    N3979    N        0.64711    0.58056    0.09657    1.000
    N3980    N        0.63930    0.59791    0.02799    1.000
    N3981    N        0.69441    0.56662    0.04794    1.000
    Si3982   Si       0.64425    0.65590    0.10158    1.000
    N3983    N        0.67727    0.64363    0.07390    1.000
    N3984    N        0.64960    0.69587    0.03613    1.000
    Si3985   Si       0.67833    0.72984    0.04607    1.000
    N3986    N        0.66619    0.69328    0.11256    1.000
    N3987    N        0.67459    0.75361    0.08109    1.000
    Si3988   Si       0.65517    0.73733    0.11584    1.000
    Si3989   Si       0.66091    0.69323    0.99373    1.000
    Si3990   Si       0.67165    0.55772    0.12546    1.000
    Si3991   Si       0.64514    0.59272    0.22823    1.000
    N3992    N        0.67843    0.56209    0.22578    1.000
    N3993    N        0.66593    0.62470    0.24502    1.000
    N3994    N        0.63742    0.53852    0.14591    1.000
    N3995    N        0.66811    0.75837    0.15336    1.000
    Si3996   Si       0.68301    0.65468    0.21617    1.000
    N3997    N        0.65717    0.72953    0.22044    1.000
    N3998    N        0.65248    0.63888    0.13858    1.000
    N3999    N        0.64866    0.66818    0.19122    1.000
    Si4000   Si       0.67930    0.66841    0.15667    1.000
    N4001    N        0.68169    0.52968    0.35080    1.000
    Si4002   Si       0.65629    0.56257    0.33319    1.000
    N4003    N        0.66650    0.58013    0.29418    1.000
    Si4004   Si       0.66672    0.62355    0.28872    1.000
    Si4005   Si       0.67639    0.54885    0.26647    1.000
    N4006    N        0.65449    0.59856    0.35736    1.000
    N4007    N        0.65194    0.51441    0.26348    1.000
    Si4008   Si       0.67521    0.73830    0.29915    1.000
    N4009    N        0.63602    0.72538    0.31211    1.000
    N4010    N        0.63789    0.64972    0.30604    1.000
    N4011    N        0.67963    0.54910    0.45546    1.000
    Si4012   Si       0.67349    0.61625    0.39259    1.000
    Si4013   Si       0.64056    0.56749    0.44462    1.000
    N4014    N        0.64987    0.60739    0.42939    1.000
    Si4015   Si       0.67815    0.56113    0.49823    1.000
    Si4016   Si       0.66229    0.75295    0.41198    1.000
    N4017    N        0.66408    0.71061    0.40629    1.000
    N4018    N        0.64990    0.70465    0.49563    1.000
    N4019    N        0.64523    0.57104    0.59989    1.000
    Si4020   Si       0.65518    0.52972    0.61323    1.000
    N4021    N        0.64356    0.53872    0.51377    1.000
    Si4022   Si       0.67020    0.60474    0.61333    1.000
    N4023    N        0.67111    0.60402    0.50264    1.000
    N4024    N        0.66176    0.74627    0.55757    1.000
    Si4025   Si       0.65708    0.74794    0.51187    1.000
    N4026    N        0.68650    0.69187    0.59218    1.000
    Si4027   Si       0.69069    0.73529    0.58551    1.000
    N4028    N        0.64564    0.64034    0.61961    1.000
    N4029    N        0.64173    0.53897    0.70094    1.000
    Si4030   Si       0.65554    0.61943    0.72949    1.000
    Si4031   Si       0.68114    0.54950    0.71685    1.000
    N4032    N        0.69023    0.59870    0.65248    1.000
    N4033    N        0.69065    0.52945    0.63812    1.000
    N4034    N        0.67832    0.58509    0.74057    1.000
    N4035    N        0.68191    0.75220    0.62435    1.000
    Si4036   Si       0.66742    0.67622    0.62741    1.000
    N4037    N        0.67971    0.64781    0.70763    1.000
    Si4038   Si       0.69567    0.68568    0.69402    1.000
    N4039    N        0.69049    0.72772    0.68653    1.000
    N4040    N        0.64030    0.70371    0.65046    1.000
    Si4041   Si       0.66057    0.74057    0.66062    1.000
    Si4042   Si       0.67270    0.58940    0.82446    1.000
    Si4043   Si       0.67864    0.51614    0.78381    1.000
    N4044    N        0.67597    0.59604    0.86519    1.000
    N4045    N        0.68956    0.55357    0.80652    1.000
    N4046    N        0.67445    0.66247    0.84495    1.000
    Si4047   Si       0.64709    0.68284    0.77032    1.000
    N4048    N        0.69017    0.68336    0.78105    1.000
    Si4049   Si       0.63867    0.68818    0.84060    1.000
    Si4050   Si       0.67241    0.55588    0.88143    1.000
    N4051    N        0.64831    0.54458    0.98734    1.000
    N4052    N        0.66656    0.56058    0.92589    1.000
    N4053    N        0.63769    0.64695    0.90627    1.000
    N4054    N        0.65523    0.65449    0.97362    1.000
    N4055    N        0.69083    0.75777    0.88128    1.000
    Si4056   Si       0.66049    0.73423    0.90135    1.000
    N4057    N        0.67740    0.70822    0.93149    1.000
    Si4058   Si       0.67173    0.63600    0.88006    1.000
    Si4059   Si       0.66676    0.66437    0.93466    1.000
    N4060    N        0.65318    0.81592    0.05200    1.000
    N4061    N        0.66760    0.86860    0.09341    1.000
    Si4062   Si       0.64612    0.85626    0.05871    1.000
    N4063    N        0.68144    0.76827    0.02459    1.000
    Si4064   Si       0.69019    0.79556    0.06388    1.000
    Si4065   Si       0.64259    0.78718    0.02302    1.000
    N4066    N        0.67307    0.87868    0.03184    1.000
    Si4067   Si       0.65510    0.96280    0.04097    1.000
    N4068    N        0.67079    0.94057    0.07483    1.000
    N4069    N        0.67317    0.00188    0.03306    1.000
    Si4070   Si       0.67601    0.95902    0.11446    1.000
    Si4071   Si       0.68580    0.90041    0.06874    1.000
    N4072    N        0.64333    0.93808    0.00584    1.000
    Si4073   Si       0.64783    0.89472    0.00009    1.000
    Si4074   Si       0.68514    0.84058    0.12226    1.000
    N4075    N        0.66509    0.79388    0.21675    1.000
    Si4076   Si       0.64786    0.79036    0.17695    1.000
    N4077    N        0.65369    0.82437    0.14858    1.000
    Si4078   Si       0.64232    0.82548    0.23960    1.000
    Si4079   Si       0.68779    0.75854    0.22561    1.000
    N4080    N        0.69456    0.99354    0.19790    1.000
    Si4081   Si       0.66923    0.91592    0.17664    1.000
    N4082    N        0.68592    0.92469    0.13826    1.000
    Si4083   Si       0.69051    0.88956    0.23968    1.000
    N4084    N        0.64154    0.94930    0.18641    1.000
    N4085    N        0.69802    0.88862    0.19851    1.000
    N4086    N        0.65123    0.82321    0.32727    1.000
    Si4087   Si       0.67672    0.79643    0.35119    1.000
    Si4088   Si       0.66565    0.85328    0.29900    1.000
    N4089    N        0.67329    0.85318    0.25554    1.000
    N4090    N        0.63417    0.88629    0.30498    1.000
    N4091    N        0.67785    0.92677    0.32807    1.000
    Si4092   Si       0.65085    0.92517    0.29303    1.000
    Si4093   Si       0.65038    0.89912    0.34665    1.000
    N4094    N        0.66314    0.92212    0.25012    1.000
    N4095    N        0.65390    0.76573    0.37165    1.000
    N4096    N        0.66369    0.87302    0.37771    1.000
    N4097    N        0.65057    0.82570    0.43575    1.000
    Si4098   Si       0.64981    0.86689    0.41922    1.000
    Si4099   Si       0.68131    0.80295    0.45937    1.000
    N4100    N        0.65142    0.79118    0.49260    1.000
    N4101    N        0.67635    0.89176    0.44323    1.000
    N4102    N        0.64121    0.94384    0.41268    1.000
    Si4103   Si       0.64579    0.98659    0.43017    1.000
    N4104    N        0.68118    0.96646    0.45415    1.000
    Si4105   Si       0.67916    0.93174    0.42653    1.000
    Si4106   Si       0.65931    0.81928    0.52773    1.000
    N4107    N        0.64382    0.85934    0.53625    1.000
    N4108    N        0.68970    0.82233    0.61450    1.000
    N4109    N        0.63532    0.86877    0.60533    1.000
    Si4110   Si       0.67098    0.89147    0.54586    1.000
    Si4111   Si       0.65800    0.96181    0.53225    1.000
    Si4112   Si       0.65768    0.95361    0.60233    1.000
    N4113    N        0.66277    0.93131    0.56453    1.000
    N4114    N        0.64640    0.99542    0.60187    1.000
    N4115    N        0.64746    0.00526    0.53389    1.000
    Si4116   Si       0.65386    0.85847    0.70304    1.000
    Si4117   Si       0.66290    0.84862    0.63625    1.000
    N4118    N        0.64207    0.83091    0.67028    1.000
    N4119    N        0.63134    0.76224    0.68663    1.000
    N4120    N        0.68065    0.99365    0.73428    1.000
    N4121    N        0.68842    0.94383    0.68580    1.000
    Si4122   Si       0.67500    0.98585    0.68759    1.000
    Si4123   Si       0.66409    0.91760    0.66072    1.000
    N4124    N        0.68815    0.88133    0.64841    1.000
    Si4125   Si       0.68157    0.78617    0.85018    1.000
    N4126    N        0.68810    0.81928    0.76929    1.000
    Si4127   Si       0.64507    0.81622    0.76979    1.000
    N4128    N        0.67494    0.76590    0.81274    1.000
    N4129    N        0.64884    0.80869    0.86647    1.000
    N4130    N        0.68354    0.88639    0.77896    1.000
    N4131    N        0.66225    0.93536    0.82923    1.000
    Si4132   Si       0.65300    0.91701    0.79069    1.000
    Si4133   Si       0.64147    0.99337    0.75665    1.000
    Si4134   Si       0.69078    0.93297    0.86163    1.000
    N4135    N        0.63962    0.95001    0.76622    1.000
    Si4136   Si       0.63834    0.97219    0.83371    1.000
    Si4137   Si       0.67127    0.84657    0.94877    1.000
    N4138    N        0.68956    0.76732    0.96153    1.000
    Si4139   Si       0.64600    0.76178    0.95956    1.000
    N4140    N        0.69037    0.83148    0.98192    1.000
    N4141    N        0.68165    0.93142    0.90479    1.000
    N4142    N        0.66740    0.89054    0.96161    1.000
    N4143    N        0.66713    0.98371    0.96364    1.000
    N4144    N        0.68541    0.00534    0.90586    1.000
    Si4145   Si       0.65802    0.96626    0.92010    1.000
    Si4146   Si       0.69549    0.90026    0.92815    1.000
    Si4147   Si       0.73672    0.05751    0.07237    1.000
    N4148    N        0.74886    0.05347    0.11411    1.000
    Si4149   Si       0.74964    0.12030    0.02281    1.000
    N4150    N        0.70132    0.11032    0.12073    1.000
    N4151    N        0.69353    0.05967    0.07388    1.000
    N4152    N        0.68988    0.12646    0.05308    1.000
    N4153    N        0.70412    0.26324    0.03900    1.000
    N4154    N        0.73634    0.16301    0.02674    1.000
    N4155    N        0.72754    0.17333    0.09355    1.000
    Si4156   Si       0.70603    0.16783    0.05714    1.000
    Si4157   Si       0.72682    0.25449    0.00116    1.000
    N4158    N        0.74716    0.08572    0.17273    1.000
    Si4159   Si       0.72084    0.07468    0.14031    1.000
    N4160    N        0.74773    0.01652    0.18045    1.000
    Si4161   Si       0.70648    0.01163    0.15994    1.000
    N4162    N        0.75343    0.00911    0.24670    1.000
    Si4163   Si       0.75123    0.22423    0.22260    1.000
    N4164    N        0.70973    0.21172    0.22229    1.000
    Si4165   Si       0.71867    0.14865    0.13028    1.000
    N4166    N        0.75164    0.21646    0.18053    1.000
    Si4167   Si       0.71019    0.20324    0.17934    1.000
    N4168    N        0.70020    0.16470    0.16539    1.000
    N4169    N        0.72742    0.03729    0.30158    1.000
    N4170    N        0.72912    0.11725    0.32559    1.000
    Si4171   Si       0.71576    0.09842    0.36234    1.000
    Si4172   Si       0.70236    0.13017    0.29450    1.000
    Si4173   Si       0.69757    0.02663    0.33475    1.000
    N4174    N        0.73058    0.23796    0.34975    1.000
    N4175    N        0.71820    0.15782    0.26417    1.000
    N4176    N        0.75057    0.12653    0.45543    1.000
    N4177    N        0.69858    0.08799    0.45423    1.000
    Si4178   Si       0.72005    0.06039    0.48396    1.000
    Si4179   Si       0.73647    0.09088    0.43259    1.000
    N4180    N        0.74714    0.09503    0.39178    1.000
    N4181    N        0.69570    0.02683    0.48769    1.000
    Si4182   Si       0.73237    0.12943    0.49430    1.000
    Si4183   Si       0.75286    0.20661    0.42959    1.000
    N4184    N        0.72150    0.21404    0.45985    1.000
    N4185    N        0.73498    0.18372    0.39351    1.000
    N4186    N        0.73597    0.08893    0.51246    1.000
    Si4187   Si       0.73740    0.03777    0.59123    1.000
    N4188    N        0.69506    0.04609    0.59223    1.000
    Si4189   Si       0.70660    0.20541    0.57013    1.000
    Si4190   Si       0.72198    0.23069    0.49929    1.000
    N4191    N        0.70006    0.24708    0.57963    1.000
    N4192    N        0.74933    0.20015    0.57934    1.000
    N4193    N        0.69896    0.20348    0.52644    1.000
    N4194    N        0.75133    0.15255    0.52281    1.000
    N4195    N        0.69474    0.08202    0.74340    1.000
    N4196    N        0.72830    0.03217    0.74211    1.000
    N4197    N        0.74544    0.06281    0.62634    1.000
    Si4198   Si       0.73209    0.03874    0.66143    1.000
    Si4199   Si       0.72339    0.09700    0.64423    1.000
    N4200    N        0.70839    0.07217    0.67648    1.000
    N4201    N        0.69933    0.00728    0.65511    1.000
    Si4202   Si       0.70539    0.21260    0.68194    1.000
    N4203    N        0.71999    0.17620    0.66190    1.000
    N4204    N        0.73672    0.22435    0.71013    1.000
    N4205    N        0.74896    0.24669    0.62925    1.000
    N4206    N        0.71123    0.06152    0.80568    1.000
    Si4207   Si       0.72884    0.06788    0.76729    1.000
    Si4208   Si       0.71791    0.09696    0.83245    1.000
    N4209    N        0.74932    0.09480    0.86217    1.000
    N4210    N        0.75231    0.10553    0.77458    1.000
    N4211    N        0.71232    0.13792    0.81941    1.000
    Si4212   Si       0.74188    0.20612    0.80180    1.000
    Si4213   Si       0.70837    0.16228    0.85390    1.000
    Si4214   Si       0.72537    0.14155    0.77831    1.000
    N4215    N        0.71391    0.23344    0.78361    1.000
    N4216    N        0.73727    0.19485    0.84380    1.000
    N4217    N        0.70257    0.24739    0.86623    1.000
    N4218    N        0.74776    0.17813    0.76918    1.000
    N4219    N        0.71113    0.03379    0.97153    1.000
    N4220    N        0.70601    0.07790    0.92870    1.000
    Si4221   Si       0.72011    0.09978    0.89509    1.000
    Si4222   Si       0.73109    0.07259    0.96434    1.000
    N4223    N        0.74808    0.02331    0.88621    1.000
    N4224    N        0.71812    0.10051    0.99554    1.000
    N4225    N        0.72029    0.14433    0.89442    1.000
    Si4226   Si       0.70542    0.22979    0.94431    1.000
    N4227    N        0.72365    0.20560    0.91534    1.000
    Si4228   Si       0.74890    0.16627    0.91830    1.000
    Si4229   Si       0.73918    0.22428    0.87642    1.000
    N4230    N        0.70495    0.21177    0.98408    1.000
    Si4231   Si       0.74149    0.18982    0.99418    1.000
    N4232    N        0.71759    0.32229    0.07173    1.000
    Si4233   Si       0.71877    0.32593    0.02626    1.000
    Si4234   Si       0.71132    0.35767    0.09539    1.000
    Si4235   Si       0.71653    0.27925    0.08001    1.000
    N4236    N        0.72422    0.36850    0.01574    1.000
    N4237    N        0.74943    0.29899    0.00596    1.000
    N4238    N        0.73896    0.38640    0.07994    1.000
    N4239    N        0.72902    0.47151    0.08998    1.000
    Si4240   Si       0.73222    0.40231    0.04053    1.000
    Si4241   Si       0.73212    0.46269    0.04670    1.000
    N4242    N        0.70233    0.43265    0.03666    1.000
    N4243    N        0.72899    0.50412    0.03537    1.000
    Si4244   Si       0.74067    0.50890    0.99410    1.000
    N4245    N        0.74150    0.28275    0.12610    1.000
    Si4246   Si       0.70090    0.26587    0.14520    1.000
    N4247    N        0.71393    0.28782    0.18235    1.000
    N4248    N        0.71685    0.34989    0.13843    1.000
    Si4249   Si       0.74730    0.29933    0.20864    1.000
    Si4250   Si       0.75085    0.32284    0.14320    1.000
    N4251    N        0.74239    0.32496    0.24329    1.000
    Si4252   Si       0.74283    0.36904    0.24908    1.000
    Si4253   Si       0.72806    0.43267    0.16368    1.000
    N4254    N        0.72060    0.40622    0.24096    1.000
    N4255    N        0.72487    0.29834    0.31026    1.000
    Si4256   Si       0.71238    0.31256    0.27125    1.000
    Si4257   Si       0.70436    0.31254    0.34829    1.000
    N4258    N        0.70476    0.35391    0.33951    1.000
    Si4259   Si       0.73408    0.38322    0.32448    1.000
    Si4260   Si       0.75195    0.26520    0.32476    1.000
    N4261    N        0.71000    0.41673    0.30834    1.000
    Si4262   Si       0.72801    0.43699    0.27439    1.000
    N4263    N        0.74018    0.47935    0.35754    1.000
    Si4264   Si       0.72571    0.49879    0.25252    1.000
    N4265    N        0.75324    0.47252    0.27627    1.000
    N4266    N        0.75493    0.40460    0.35569    1.000
    Si4267   Si       0.73270    0.43923    0.37003    1.000
    N4268    N        0.74678    0.36008    0.41645    1.000
    Si4269   Si       0.73033    0.30078    0.48486    1.000
    N4270    N        0.72793    0.34333    0.48116    1.000
    Si4271   Si       0.71117    0.35569    0.44122    1.000
    N4272    N        0.71104    0.29048    0.44719    1.000
    N4273    N        0.72909    0.30369    0.38244    1.000
    Si4274   Si       0.72743    0.27200    0.41257    1.000
    Si4275   Si       0.71087    0.43849    0.44480    1.000
    N4276    N        0.72877    0.46632    0.47622    1.000
    N4277    N        0.74184    0.43478    0.41391    1.000
    N4278    N        0.70983    0.39737    0.45726    1.000
    Si4279   Si       0.74065    0.38578    0.48788    1.000
    N4280    N        0.73858    0.35041    0.57088    1.000
    N4281    N        0.71219    0.27207    0.51313    1.000
    Si4282   Si       0.70251    0.33388    0.58935    1.000
    Si4283   Si       0.74865    0.38784    0.54978    1.000
    N4284    N        0.71629    0.48013    0.54369    1.000
    N4285    N        0.72707    0.41007    0.52003    1.000
    Si4286   Si       0.71061    0.45029    0.51315    1.000
    N4287    N        0.72144    0.46691    0.61407    1.000
    Si4288   Si       0.75134    0.43506    0.61724    1.000
    N4289    N        0.70637    0.30469    0.62129    1.000
    Si4290   Si       0.70939    0.26049    0.62206    1.000
    Si4291   Si       0.74580    0.26791    0.71047    1.000
    Si4292   Si       0.72233    0.31892    0.65922    1.000
    N4293    N        0.71363    0.28833    0.69157    1.000
    N4294    N        0.74313    0.36737    0.72486    1.000
    N4295    N        0.70440    0.35658    0.67478    1.000
    Si4296   Si       0.74834    0.37828    0.67716    1.000
    Si4297   Si       0.69808    0.36663    0.71951    1.000
    Si4298   Si       0.71614    0.49453    0.64840    1.000
    N4299    N        0.73153    0.40381    0.64031    1.000
    N4300    N        0.69845    0.40985    0.71793    1.000
    N4301    N        0.70889    0.47580    0.68844    1.000
    Si4302   Si       0.72603    0.49237    0.72542    1.000
    Si4303   Si       0.74206    0.41719    0.72837    1.000
    N4304    N        0.73321    0.45688    0.74673    1.000
    N4305    N        0.72463    0.29896    0.81848    1.000
    Si4306   Si       0.71934    0.33934    0.80360    1.000
    N4307    N        0.71482    0.36471    0.83858    1.000
    Si4308   Si       0.70820    0.29032    0.85861    1.000
    Si4309   Si       0.74016    0.26725    0.78978    1.000
    Si4310   Si       0.74865    0.38917    0.82230    1.000
    N4311    N        0.72968    0.42689    0.81232    1.000
    Si4312   Si       0.74573    0.30264    0.95999    1.000
    N4313    N        0.72182    0.26687    0.95783    1.000
    N4314    N        0.72474    0.33914    0.95376    1.000
    Si4315   Si       0.70615    0.37204    0.97571    1.000
    Si4316   Si       0.72235    0.34555    0.91186    1.000
    N4317    N        0.73143    0.30802    0.89136    1.000
    N4318    N        0.74333    0.46740    0.98037    1.000
    N4319    N        0.71989    0.40858    0.95472    1.000
    Si4320   Si       0.74721    0.47598    0.89794    1.000
    N4321    N        0.70672    0.46754    0.91574    1.000
    Si4322   Si       0.71231    0.45046    0.95481    1.000
    Si4323   Si       0.72087    0.53420    0.06789    1.000
    N4324    N        0.70992    0.59772    0.10710    1.000
    Si4325   Si       0.74144    0.62599    0.11728    1.000
    N4326    N        0.69682    0.52825    0.10485    1.000
    N4327    N        0.73437    0.65141    0.02408    1.000
    Si4328   Si       0.73469    0.69349    0.02157    1.000
    N4329    N        0.71546    0.70801    0.05828    1.000
    N4330    N        0.72995    0.66739    0.11551    1.000
    Si4331   Si       0.69920    0.67855    0.08629    1.000
    N4332    N        0.72970    0.51064    0.21229    1.000
    Si4333   Si       0.73303    0.56401    0.12528    1.000
    N4334    N        0.70325    0.55765    0.15995    1.000
    Si4335   Si       0.71235    0.54865    0.20070    1.000
    N4336    N        0.74114    0.58057    0.20970    1.000
    Si4337   Si       0.74192    0.61494    0.18468    1.000
    Si4338   Si       0.73831    0.68131    0.19153    1.000
    N4339    N        0.73669    0.74734    0.12777    1.000
    N4340    N        0.70882    0.64210    0.18108    1.000
    N4341    N        0.70390    0.70293    0.16751    1.000
    N4342    N        0.71575    0.68492    0.22907    1.000
    Si4343   Si       0.70749    0.74564    0.15939    1.000
    N4344    N        0.71456    0.53039    0.27765    1.000
    Si4345   Si       0.74376    0.61992    0.31415    1.000
    Si4346   Si       0.72030    0.51727    0.36321    1.000
    Si4347   Si       0.75317    0.54862    0.29298    1.000
    N4348    N        0.75214    0.59176    0.28313    1.000
    N4349    N        0.70224    0.63469    0.31287    1.000
    N4350    N        0.75609    0.53555    0.33469    1.000
    Si4351   Si       0.72381    0.71252    0.26093    1.000
    Si4352   Si       0.71328    0.67621    0.32366    1.000
    N4353    N        0.71680    0.70764    0.35488    1.000
    Si4354   Si       0.73079    0.74767    0.34704    1.000
    N4355    N        0.70527    0.75334    0.26513    1.000
    N4356    N        0.69644    0.69983    0.29347    1.000
    N4357    N        0.70455    0.58797    0.40311    1.000
    Si4358   Si       0.71558    0.55862    0.43121    1.000
    N4359    N        0.73157    0.52927    0.40341    1.000
    Si4360   Si       0.73315    0.61861    0.38702    1.000
    N4361    N        0.74659    0.57487    0.45675    1.000
    N4362    N        0.70273    0.64898    0.38680    1.000
    Si4363   Si       0.73422    0.74583    0.42599    1.000
    N4364    N        0.73173    0.70341    0.42090    1.000
    Si4365   Si       0.74525    0.66794    0.44285    1.000
    Si4366   Si       0.70207    0.69229    0.39330    1.000
    N4367    N        0.71034    0.66537    0.47037    1.000
    N4368    N        0.71702    0.55354    0.51589    1.000
    N4369    N        0.73812    0.61883    0.51399    1.000
    N4370    N        0.70521    0.62182    0.58964    1.000
    Si4371   Si       0.73489    0.51934    0.53889    1.000
    Si4372   Si       0.74598    0.61161    0.60145    1.000
    Si4373   Si       0.74659    0.57895    0.49912    1.000
    Si4374   Si       0.70124    0.63507    0.50259    1.000
    Si4375   Si       0.70936    0.66082    0.56972    1.000
    N4376    N        0.72815    0.74541    0.56593    1.000
    Si4377   Si       0.73730    0.75287    0.52231    1.000
    N4378    N        0.70282    0.73579    0.50389    1.000
    N4379    N        0.69331    0.66765    0.52970    1.000
    Si4380   Si       0.69093    0.69571    0.49707    1.000
    Si4381   Si       0.71637    0.56120    0.65339    1.000
    N4382    N        0.71813    0.56097    0.69487    1.000
    N4383    N        0.74546    0.62349    0.69382    1.000
    Si4384   Si       0.70441    0.62969    0.67544    1.000
    Si4385   Si       0.75080    0.58360    0.71599    1.000
    N4386    N        0.75119    0.57785    0.63206    1.000
    N4387    N        0.69441    0.51780    0.74368    1.000
    Si4388   Si       0.71400    0.75731    0.70565    1.000
    N4389    N        0.72826    0.68842    0.72288    1.000
    N4390    N        0.70105    0.66832    0.65434    1.000
    N4391    N        0.70388    0.75053    0.74947    1.000
    Si4392   Si       0.70599    0.58035    0.77384    1.000
    Si4393   Si       0.71608    0.52884    0.83078    1.000
    N4394    N        0.74705    0.57739    0.75880    1.000
    N4395    N        0.69916    0.61440    0.80039    1.000
    N4396    N        0.75859    0.53887    0.81563    1.000
    Si4397   Si       0.71562    0.71037    0.75910    1.000
    Si4398   Si       0.70372    0.65561    0.81229    1.000
    N4399    N        0.74585    0.66454    0.81894    1.000
    N4400    N        0.75391    0.71597    0.77832    1.000
    N4401    N        0.69638    0.59464    0.98342    1.000
    N4402    N        0.71008    0.53393    0.87377    1.000
    Si4403   Si       0.74601    0.54211    0.90214    1.000
    N4404    N        0.70723    0.52880    0.97487    1.000
    N4405    N        0.73065    0.57527    0.92515    1.000
    Si4406   Si       0.73501    0.61891    0.92123    1.000
    Si4407   Si       0.70025    0.56470    0.95287    1.000
    N4408    N        0.75257    0.62633    0.95947    1.000
    Si4409   Si       0.73110    0.61563    0.99475    1.000
    N4410    N        0.70406    0.70622    0.99272    1.000
    N4411    N        0.69853    0.64292    0.91527    1.000
    N4412    N        0.74878    0.73507    0.93997    1.000
    Si4413   Si       0.70916    0.72842    0.95589    1.000
    N4414    N        0.71848    0.81953    0.03580    1.000
    N4415    N        0.70764    0.80773    0.10184    1.000
    Si4416   Si       0.70845    0.85649    0.01323    1.000
    Si4417   Si       0.74562    0.78292    0.10528    1.000
    N4418    N        0.74391    0.88373    0.01691    1.000
    N4419    N        0.72692    0.89664    0.08105    1.000
    N4420    N        0.73452    0.98092    0.00204    1.000
    N4421    N        0.74805    0.96656    0.07116    1.000
    Si4422   Si       0.74987    0.97221    0.11296    1.000
    Si4423   Si       0.72842    0.86436    0.18175    1.000
    N4424    N        0.71984    0.86376    0.13977    1.000
    N4425    N        0.74881    0.82354    0.19025    1.000
    N4426    N        0.72299    0.75843    0.19862    1.000
    Si4427   Si       0.73680    0.99018    0.21214    1.000
    N4428    N        0.75344    0.93630    0.13898    1.000
    Si4429   Si       0.72366    0.90477    0.12436    1.000
    N4430    N        0.70963    0.98630    0.12540    1.000
    N4431    N        0.74858    0.94846    0.21431    1.000
    Si4432   Si       0.72862    0.78074    0.29085    1.000
    N4433    N        0.74043    0.82347    0.28360    1.000
    Si4434   Si       0.73540    0.86620    0.29505    1.000
    Si4435   Si       0.70444    0.86118    0.36361    1.000
    N4436    N        0.70299    0.86465    0.31982    1.000
    N4437    N        0.69702    0.76823    0.32349    1.000
    N4438    N        0.70962    0.81752    0.36905    1.000
    N4439    N        0.72559    0.89533    0.26301    1.000
    Si4440   Si       0.71315    0.95255    0.32672    1.000
    N4441    N        0.72515    0.96355    0.28506    1.000
    N4442    N        0.70728    0.98790    0.35068    1.000
    Si4443   Si       0.74416    0.93608    0.25576    1.000
    Si4444   Si       0.74769    0.00139    0.28797    1.000
    N4445    N        0.75021    0.93461    0.34325    1.000
    Si4446   Si       0.74529    0.80352    0.38832    1.000
    N4447    N        0.70045    0.83387    0.48238    1.000
    Si4448   Si       0.70468    0.87590    0.47431    1.000
    N4449    N        0.73719    0.87770    0.38559    1.000
    N4450    N        0.74158    0.76010    0.38559    1.000
    N4451    N        0.69640    0.76976    0.43415    1.000
    N4452    N        0.74509    0.87975    0.45913    1.000
    N4453    N        0.74980    0.99865    0.40833    1.000
    N4454    N        0.70924    0.94346    0.39908    1.000
    Si4455   Si       0.70944    0.98592    0.39561    1.000
    Si4456   Si       0.74361    0.92044    0.38272    1.000
    Si4457   Si       0.70884    0.98686    0.48032    1.000
    Si4458   Si       0.71210    0.83813    0.58257    1.000
    Si4459   Si       0.73002    0.82594    0.51356    1.000
    N4460    N        0.69904    0.81778    0.54421    1.000
    N4461    N        0.69986    0.87888    0.57567    1.000
    N4462    N        0.75062    0.79094    0.50239    1.000
    N4463    N        0.74286    0.99511    0.60290    1.000
    N4464    N        0.73490    0.93545    0.56504    1.000
    Si4465   Si       0.71431    0.91305    0.59454    1.000
    Si4466   Si       0.72211    0.93136    0.52242    1.000
    N4467    N        0.69989    0.96702    0.51811    1.000
    N4468    N        0.74780    0.90195    0.61923    1.000
    N4469    N        0.69605    0.94509    0.61924    1.000
    N4470    N        0.69675    0.89851    0.50974    1.000
    N4471    N        0.74580    0.78093    0.62241    1.000
    Si4472   Si       0.72496    0.82894    0.69065    1.000
    Si4473   Si       0.70454    0.78733    0.63415    1.000
    N4474    N        0.70525    0.79210    0.67732    1.000
    N4475    N        0.74891    0.84085    0.65510    1.000
    Si4476   Si       0.73083    0.88174    0.65299    1.000
    N4477    N        0.69435    0.85400    0.71291    1.000
    Si4478   Si       0.72940    0.93901    0.69920    1.000
    Si4479   Si       0.72424    0.97464    0.63752    1.000
    N4480    N        0.73588    0.95045    0.74005    1.000
    N4481    N        0.74911    0.96720    0.67341    1.000
    N4482    N        0.74716    0.90083    0.68731    1.000
    N4483    N        0.71808    0.81096    0.85691    1.000
    N4484    N        0.74064    0.85638    0.81650    1.000
    N4485    N        0.74322    0.78337    0.79899    1.000
    Si4486   Si       0.70418    0.85753    0.75463    1.000
    N4487    N        0.74475    0.87451    0.75408    1.000
    Si4488   Si       0.70247    0.77993    0.78071    1.000
    Si4489   Si       0.74980    0.81477    0.82753    1.000
    Si4490   Si       0.71077    0.88828    0.81370    1.000
    N4491    N        0.69986    0.89199    0.85668    1.000
    N4492    N        0.73364    0.92311    0.80543    1.000
    N4493    N        0.72216    0.96351    0.86164    1.000
    Si4494   Si       0.72121    0.98932    0.75581    1.000
    Si4495   Si       0.74655    0.95994    0.82623    1.000
    N4496    N        0.74805    0.98998    0.79493    1.000
    Si4497   Si       0.75010    0.91697    0.76434    1.000
    Si4498   Si       0.71474    0.85353    0.87298    1.000
    Si4499   Si       0.73000    0.77867    0.88797    1.000
    Si4500   Si       0.74216    0.84972    0.92853    1.000
    N4501    N        0.73937    0.80373    0.92445    1.000
    N4502    N        0.74658    0.78019    0.99434    1.000
    N4503    N        0.69685    0.85700    0.91552    1.000
    Si4504   Si       0.70413    0.79287    0.99550    1.000
    Si4505   Si       0.69538    0.00002    0.99387    1.000
    N4506    N        0.74360    0.96965    0.93170    1.000
    N4507    N        0.73752    0.89557    0.94286    1.000
    Si4508   Si       0.72447    0.98822    0.89694    1.000
    Si4509   Si       0.79209    0.06131    0.04727    1.000
    N4510    N        0.76153    0.02836    0.04898    1.000
    N4511    N        0.75730    0.09135    0.05268    1.000
    N4512    N        0.78720    0.12372    0.00112    1.000
    Si4513   Si       0.78883    0.03541    0.11660    1.000
    N4514    N        0.81123    0.05670    0.08598    1.000
    N4515    N        0.80312    0.16145    0.08634    1.000
    Si4516   Si       0.76960    0.17754    0.10823    1.000
    N4517    N        0.76182    0.22816    0.00124    1.000
    N4518    N        0.77691    0.21950    0.12197    1.000
    Si4519   Si       0.80350    0.22703    0.99737    1.000
    Si4520   Si       0.77273    0.12114    0.17148    1.000
    N4521    N        0.80430    0.04837    0.15556    1.000
    Si4522   Si       0.77346    0.05275    0.18432    1.000
    N4523    N        0.78706    0.06286    0.22536    1.000
    N4524    N        0.76099    0.14559    0.13879    1.000
    N4525    N        0.76815    0.14678    0.20681    1.000
    Si4526   Si       0.79066    0.22009    0.16193    1.000
    Si4527   Si       0.81150    0.15614    0.20078    1.000
    N4528    N        0.80185    0.11809    0.34143    1.000
    N4529    N        0.78032    0.12644    0.27471    1.000
    Si4530   Si       0.80093    0.09309    0.25421    1.000
    Si4531   Si       0.79318    0.02897    0.25510    1.000
    Si4532   Si       0.76946    0.13559    0.31712    1.000
    N4533    N        0.81112    0.06100    0.28105    1.000
    N4534    N        0.76406    0.24475    0.29053    1.000
    Si4535   Si       0.78066    0.20352    0.28973    1.000
    N4536    N        0.76256    0.17878    0.31949    1.000
    N4537    N        0.77254    0.19585    0.24759    1.000
    Si4538   Si       0.75891    0.15585    0.24897    1.000
    Si4539   Si       0.80600    0.25757    0.27531    1.000
    N4540    N        0.79638    0.20604    0.36730    1.000
    Si4541   Si       0.75450    0.20132    0.35567    1.000
    Si4542   Si       0.76630    0.01571    0.44527    1.000
    Si4543   Si       0.78922    0.10150    0.38080    1.000
    N4544    N        0.80521    0.06131    0.38414    1.000
    N4545    N        0.80616    0.13191    0.40957    1.000
    N4546    N        0.75421    0.05590    0.45194    1.000
    N4547    N        0.78439    0.18959    0.45024    1.000
    N4548    N        0.75933    0.24476    0.41254    1.000
    Si4549   Si       0.78956    0.14441    0.44802    1.000
    Si4550   Si       0.76783    0.08941    0.54178    1.000
    Si4551   Si       0.79736    0.01897    0.55060    1.000
    N4552    N        0.76615    0.04689    0.55957    1.000
    N4553    N        0.77078    0.11051    0.57987    1.000
    N4554    N        0.80685    0.09247    0.51918    1.000
    Si4555   Si       0.77852    0.09583    0.61975    1.000
    Si4556   Si       0.76685    0.18985    0.53925    1.000
    Si4557   Si       0.77418    0.21590    0.61189    1.000
    N4558    N        0.76076    0.22918    0.51629    1.000
    N4559    N        0.80826    0.23304    0.58817    1.000
    N4560    N        0.80848    0.19033    0.52654    1.000
    N4561    N        0.76869    0.04535    0.68677    1.000
    Si4562   Si       0.77039    0.03190    0.72797    1.000
    Si4563   Si       0.80404    0.04328    0.66431    1.000
    N4564    N        0.75726    0.12219    0.64759    1.000
    N4565    N        0.81176    0.07709    0.63905    1.000
    N4566    N        0.79039    0.18458    0.64043    1.000
    Si4567   Si       0.76057    0.16361    0.66558    1.000
    N4568    N        0.79906    0.21924    0.74144    1.000
    Si4569   Si       0.76407    0.19583    0.73131    1.000
    N4570    N        0.77501    0.16217    0.70740    1.000
    Si4571   Si       0.81216    0.14273    0.71774    1.000
    Si4572   Si       0.79360    0.08779    0.77726    1.000
    N4573    N        0.79516    0.02783    0.83170    1.000
    N4574    N        0.78567    0.04654    0.76747    1.000
    Si4575   Si       0.78698    0.01031    0.79337    1.000
    N4576    N        0.81744    0.11389    0.75090    1.000
    N4577    N        0.80365    0.13830    0.85816    1.000
    Si4578   Si       0.79494    0.24502    0.84195    1.000
    N4579    N        0.76961    0.24077    0.80819    1.000
    Si4580   Si       0.78784    0.02476    0.87746    1.000
    Si4581   Si       0.79266    0.11292    0.95830    1.000
    Si4582   Si       0.80740    0.04615    0.97039    1.000
    Si4583   Si       0.78609    0.10418    0.88080    1.000
    N4584    N        0.77382    0.07106    0.96030    1.000
    N4585    N        0.77596    0.12111    0.91937    1.000
    N4586    N        0.78233    0.18719    0.90206    1.000
    N4587    N        0.76097    0.17521    0.95971    1.000
    N4588    N        0.77012    0.25567    0.87493    1.000
    Si4589   Si       0.80019    0.19071    0.94270    1.000
    Si4590   Si       0.78088    0.28619    0.03568    1.000
    N4591    N        0.80018    0.32209    0.05180    1.000
    N4592    N        0.75900    0.26762    0.06882    1.000
    Si4593   Si       0.80612    0.32283    0.09543    1.000
    N4594    N        0.77647    0.34496    0.11991    1.000
    Si4595   Si       0.77455    0.26065    0.10804    1.000
    N4596    N        0.81121    0.28386    0.10932    1.000
    N4597    N        0.81303    0.26439    0.01798    1.000
    Si4598   Si       0.77111    0.38782    0.10877    1.000
    N4599    N        0.76561    0.43412    0.03458    1.000
    Si4600   Si       0.80190    0.42860    0.06090    1.000
    N4601    N        0.79769    0.46153    0.08775    1.000
    Si4602   Si       0.76584    0.46396    0.11552    1.000
    N4603    N        0.80848    0.39644    0.08862    1.000
    Si4604   Si       0.80007    0.34498    0.20162    1.000
    N4605    N        0.77353    0.31942    0.18058    1.000
    N4606    N        0.77745    0.37672    0.22316    1.000
    N4607    N        0.76800    0.26337    0.22586    1.000
    Si4608   Si       0.81007    0.27458    0.20996    1.000
    N4609    N        0.79929    0.49375    0.21249    1.000
    N4610    N        0.76521    0.48890    0.15063    1.000
    Si4611   Si       0.78345    0.42005    0.22009    1.000
    Si4612   Si       0.76126    0.48772    0.19239    1.000
    N4613    N        0.75772    0.42251    0.13225    1.000
    N4614    N        0.75454    0.44350    0.19783    1.000
    N4615    N        0.77949    0.34446    0.35389    1.000
    N4616    N        0.78362    0.27835    0.34842    1.000
    N4617    N        0.75985    0.37557    0.29010    1.000
    Si4618   Si       0.80338    0.31507    0.33133    1.000
    Si4619   Si       0.79452    0.38340    0.35916    1.000
    Si4620   Si       0.79928    0.39119    0.28545    1.000
    Si4621   Si       0.77826    0.49563    0.34352    1.000
    Si4622   Si       0.79328    0.46483    0.28536    1.000
    N4623    N        0.79546    0.42775    0.26374    1.000
    N4624    N        0.80079    0.46492    0.32720    1.000
    Si4625   Si       0.76235    0.33039    0.38996    1.000
    N4626    N        0.78844    0.30218    0.41344    1.000
    N4627    N        0.77022    0.28715    0.48203    1.000
    Si4628   Si       0.80202    0.30312    0.45441    1.000
    Si4629   Si       0.79273    0.26287    0.38997    1.000
    N4630    N        0.81378    0.34225    0.46907    1.000
    N4631    N        0.80292    0.39758    0.39939    1.000
    Si4632   Si       0.80956    0.42761    0.47605    1.000
    Si4633   Si       0.76695    0.39754    0.42285    1.000
    Si4634   Si       0.76431    0.48841    0.48115    1.000
    N4635    N        0.77581    0.40350    0.46598    1.000
    N4636    N        0.78454    0.50520    0.44460    1.000
    N4637    N        0.78124    0.36890    0.52725    1.000
    N4638    N        0.78716    0.30164    0.54694    1.000
    Si4639   Si       0.78362    0.33984    0.56180    1.000
    N4640    N        0.79900    0.36350    0.59538    1.000
    Si4641   Si       0.77936    0.26755    0.51931    1.000
    Si4642   Si       0.80177    0.40783    0.58914    1.000
    N4643    N        0.76205    0.41768    0.57854    1.000
    N4644    N        0.79471    0.46143    0.49756    1.000
    N4645    N        0.78694    0.27077    0.69819    1.000
    Si4646   Si       0.79726    0.34706    0.63657    1.000
    N4647    N        0.80484    0.30438    0.63141    1.000
    N4648    N        0.75750    0.34214    0.65243    1.000
    Si4649   Si       0.79659    0.26369    0.74180    1.000
    N4650    N        0.81328    0.34903    0.74047    1.000
    Si4651   Si       0.80496    0.41632    0.66890    1.000
    N4652    N        0.79440    0.42821    0.62959    1.000
    N4653    N        0.76866    0.41489    0.69287    1.000
    Si4654   Si       0.77776    0.36789    0.75590    1.000
    N4655    N        0.75714    0.27720    0.75173    1.000
    N4656    N        0.79516    0.32307    0.86700    1.000
    N4657    N        0.75910    0.35634    0.79334    1.000
    N4658    N        0.77954    0.39541    0.84990    1.000
    N4659    N        0.78197    0.48081    0.78780    1.000
    N4660    N        0.77244    0.41100    0.76167    1.000
    Si4661   Si       0.77800    0.50075    0.82507    1.000
    N4662    N        0.75956    0.47255    0.85541    1.000
    Si4663   Si       0.78195    0.43543    0.86523    1.000
    Si4664   Si       0.79560    0.50435    0.75518    1.000
    Si4665   Si       0.75828    0.44495    0.78218    1.000
    Si4666   Si       0.79757    0.36558    0.87924    1.000
    N4667    N        0.75962    0.36820    0.90833    1.000
    Si4668   Si       0.77226    0.29589    0.89146    1.000
    N4669    N        0.78151    0.30147    0.93502    1.000
    Si4670   Si       0.77734    0.44361    0.99074    1.000
    N4671    N        0.78432    0.40725    0.96744    1.000
    N4672    N        0.76295    0.43596    0.90637    1.000
    Si4673   Si       0.79224    0.50636    0.95488    1.000
    N4674    N        0.81080    0.47094    0.98131    1.000
    Si4675   Si       0.75769    0.40202    0.93413    1.000
    Si4676   Si       0.79810    0.55147    0.08540    1.000
    Si4677   Si       0.78906    0.56582    0.00928    1.000
    Si4678   Si       0.76621    0.62701    0.04348    1.000
    N4679    N        0.77169    0.62499    0.08607    1.000
    N4680    N        0.81212    0.55633    0.04327    1.000
    Si4681   Si       0.80974    0.62799    0.10725    1.000
    N4682    N        0.75629    0.54828    0.09146    1.000
    N4683    N        0.75467    0.59025    0.01986    1.000
    N4684    N        0.80343    0.63863    0.02541    1.000
    Si4685   Si       0.78241    0.73486    0.05675    1.000
    N4686    N        0.77666    0.70328    0.02825    1.000
    N4687    N        0.78629    0.71384    0.09675    1.000
    Si4688   Si       0.81014    0.67979    0.01184    1.000
    Si4689   Si       0.80265    0.58673    0.14877    1.000
    N4690    N        0.75883    0.59642    0.14590    1.000
    N4691    N        0.80682    0.59695    0.22606    1.000
    Si4692   Si       0.76994    0.58173    0.24310    1.000
    Si4693   Si       0.75267    0.70649    0.12618    1.000
    N4694    N        0.76551    0.64502    0.20418    1.000
    N4695    N        0.77026    0.70020    0.16623    1.000
    Si4696   Si       0.79911    0.73131    0.17757    1.000
    Si4697   Si       0.80267    0.64072    0.22656    1.000
    Si4698   Si       0.77957    0.56588    0.35745    1.000
    N4699    N        0.77887    0.54131    0.25845    1.000
    N4700    N        0.81609    0.57271    0.33363    1.000
    N4701    N        0.75338    0.60316    0.35264    1.000
    N4702    N        0.80583    0.64642    0.26945    1.000
    Si4703   Si       0.79896    0.74174    0.25464    1.000
    Si4704   Si       0.78539    0.67981    0.29016    1.000
    N4705    N        0.76722    0.71091    0.26469    1.000
    N4706    N        0.75437    0.66284    0.31442    1.000
    N4707    N        0.80121    0.51449    0.37728    1.000
    Si4708   Si       0.77517    0.52850    0.41020    1.000
    Si4709   Si       0.77907    0.59740    0.43623    1.000
    N4710    N        0.78448    0.57107    0.40212    1.000
    N4711    N        0.81160    0.61683    0.45777    1.000
    N4712    N        0.75614    0.63234    0.42122    1.000
    N4713    N        0.78757    0.68235    0.45654    1.000
    Si4714   Si       0.79254    0.72331    0.47235    1.000
    N4715    N        0.77187    0.75647    0.44927    1.000
    N4716    N        0.77465    0.59890    0.57144    1.000
    Si4717   Si       0.78705    0.55928    0.55193    1.000
    N4718    N        0.78934    0.57859    0.51113    1.000
    Si4719   Si       0.76487    0.53699    0.61560    1.000
    N4720    N        0.80586    0.52504    0.61275    1.000
    Si4721   Si       0.77121    0.63013    0.54170    1.000
    N4722    N        0.77014    0.51373    0.51609    1.000
    N4723    N        0.75444    0.53512    0.57399    1.000
    Si4724   Si       0.77258    0.67625    0.60631    1.000
    N4725    N        0.77299    0.72738    0.51237    1.000
    Si4726   Si       0.80504    0.73709    0.53936    1.000
    Si4727   Si       0.75636    0.74727    0.59860    1.000
    N4728    N        0.79214    0.75500    0.57693    1.000
    N4729    N        0.75310    0.66281    0.56839    1.000
    N4730    N        0.78436    0.56903    0.68900    1.000
    Si4731   Si       0.77930    0.52532    0.68383    1.000
    Si4732   Si       0.77385    0.60905    0.66043    1.000
    N4733    N        0.76736    0.50762    0.72248    1.000
    N4734    N        0.75064    0.51919    0.65143    1.000
    Si4735   Si       0.77536    0.72241    0.66787    1.000
    Si4736   Si       0.76203    0.66294    0.71280    1.000
    N4737    N        0.76046    0.71438    0.62703    1.000
    N4738    N        0.75763    0.75250    0.69469    1.000
    N4739    N        0.76393    0.63931    0.62826    1.000
    N4740    N        0.79002    0.68775    0.69037    1.000
    Si4741   Si       0.77958    0.56981    0.79085    1.000
    N4742    N        0.80488    0.60425    0.79593    1.000
    N4743    N        0.80905    0.54485    0.76790    1.000
    Si4744   Si       0.76966    0.67680    0.78444    1.000
    Si4745   Si       0.76476    0.65997    0.85691    1.000
    N4746    N        0.77702    0.65146    0.75147    1.000
    N4747    N        0.80341    0.74413    0.81971    1.000
    Si4748   Si       0.77237    0.75418    0.78913    1.000
    N4749    N        0.80725    0.64159    0.85540    1.000
    Si4750   Si       0.81290    0.63947    0.77020    1.000
    Si4751   Si       0.79604    0.62755    0.96019    1.000
    Si4752   Si       0.79295    0.60679    0.88053    1.000
    N4753    N        0.78019    0.56223    0.88031    1.000
    N4754    N        0.77592    0.53110    0.98662    1.000
    N4755    N        0.80583    0.61424    0.92170    1.000
    N4756    N        0.75315    0.62666    0.88164    1.000
    N4757    N        0.76376    0.50789    0.92205    1.000
    N4758    N        0.76538    0.75568    0.87981    1.000
    N4759    N        0.78433    0.69015    0.88174    1.000
    N4760    N        0.81188    0.66736    0.96868    1.000
    Si4761   Si       0.77491    0.72387    0.90754    1.000
    N4762    N        0.81634    0.72705    0.92346    1.000
    Si4763   Si       0.80133    0.83269    0.09319    1.000
    N4764    N        0.77488    0.84360    0.06224    1.000
    N4765    N        0.80045    0.81089    0.01450    1.000
    Si4766   Si       0.76231    0.80659    0.03439    1.000
    N4767    N        0.75990    0.77301    0.06500    1.000
    Si4768   Si       0.76115    0.88563    0.05680    1.000
    N4769    N        0.79924    0.90888    0.05954    1.000
    N4770    N        0.79985    0.96636    0.02212    1.000
    Si4771   Si       0.76334    0.98613    0.03724    1.000
    N4772    N        0.77481    0.81179    0.12058    1.000
    N4773    N        0.78660    0.77389    0.17754    1.000
    Si4774   Si       0.78051    0.81431    0.16229    1.000
    Si4775   Si       0.79697    0.86608    0.20658    1.000
    N4776    N        0.79502    0.84751    0.24454    1.000
    Si4777   Si       0.75718    0.78532    0.20736    1.000
    Si4778   Si       0.76902    0.93007    0.18018    1.000
    N4779    N        0.78929    0.99272    0.12106    1.000
    N4780    N        0.76515    0.88766    0.18722    1.000
    N4781    N        0.80999    0.94557    0.17544    1.000
    Si4782   Si       0.78255    0.81399    0.26716    1.000
    Si4783   Si       0.79338    0.78818    0.33373    1.000
    N4784    N        0.80477    0.81669    0.30354    1.000
    N4785    N        0.75951    0.76549    0.31888    1.000
    N4786    N        0.77329    0.87992    0.31458    1.000
    N4787    N        0.78200    0.81549    0.36833    1.000
    N4788    N        0.77782    0.77855    0.24514    1.000
    Si4789   Si       0.81205    0.85868    0.31266    1.000
    N4790    N        0.78891    0.99900    0.29659    1.000
    N4791    N        0.78528    0.93774    0.27116    1.000
    Si4792   Si       0.78044    0.92192    0.31445    1.000
    Si4793   Si       0.81417    0.96949    0.28042    1.000
    N4794    N        0.81618    0.99065    0.37176    1.000
    N4795    N        0.80244    0.86820    0.41463    1.000
    Si4796   Si       0.77208    0.79606    0.46302    1.000
    Si4797   Si       0.75766    0.86064    0.42169    1.000
    N4798    N        0.75433    0.81756    0.42871    1.000
    N4799    N        0.81127    0.88065    0.48298    1.000
    N4800    N        0.75157    0.99056    0.47628    1.000
    Si4801   Si       0.77046    0.88532    0.49381    1.000
    Si4802   Si       0.78738    0.97953    0.40121    1.000
    N4803    N        0.80682    0.00394    0.43294    1.000
    N4804    N        0.77877    0.93590    0.40357    1.000
    Si4805   Si       0.78222    0.85479    0.55961    1.000
    N4806    N        0.75722    0.85791    0.52401    1.000
    N4807    N        0.80846    0.80888    0.61286    1.000
    N4808    N        0.75565    0.83691    0.58649    1.000
    N4809    N        0.81359    0.82796    0.54791    1.000
    N4810    N        0.80740    0.88638    0.57658    1.000
    Si4811   Si       0.79069    0.91100    0.60949    1.000
    N4812    N        0.77565    0.98290    0.54229    1.000
    N4813    N        0.79632    0.95233    0.60020    1.000
    Si4814   Si       0.76161    0.96532    0.57737    1.000
    Si4815   Si       0.77823    0.96443    0.50282    1.000
    N4816    N        0.75954    0.92520    0.50310    1.000
    Si4817   Si       0.76804    0.81851    0.62368    1.000
    Si4818   Si       0.77966    0.78343    0.71678    1.000
    N4819    N        0.80592    0.86214    0.70927    1.000
    Si4820   Si       0.77765    0.84827    0.74066    1.000
    N4821    N        0.75540    0.81771    0.72009    1.000
    N4822    N        0.80530    0.93806    0.69891    1.000
    Si4823   Si       0.79119    0.89656    0.68687    1.000
    N4824    N        0.79936    0.00054    0.71923    1.000
    N4825    N        0.80261    0.00069    0.65100    1.000
    N4826    N        0.80793    0.89594    0.64527    1.000
    Si4827   Si       0.79066    0.97629    0.68541    1.000
    N4828    N        0.78967    0.80982    0.84314    1.000
    N4829    N        0.79930    0.84395    0.77894    1.000
    Si4830   Si       0.79875    0.76834    0.85567    1.000
    Si4831   Si       0.78006    0.87459    0.80347    1.000
    N4832    N        0.79567    0.76569    0.75414    1.000
    N4833    N        0.80096    0.88513    0.84003    1.000
    N4834    N        0.79113    0.91158    0.78141    1.000
    N4835    N        0.78710    0.95273    0.84111    1.000
    N4836    N        0.79907    0.78658    0.94909    1.000
    N4837    N        0.77154    0.84768    0.96283    1.000
    Si4838   Si       0.80478    0.82164    0.97255    1.000
    Si4839   Si       0.75778    0.77694    0.95300    1.000
    Si4840   Si       0.78976    0.88099    0.88219    1.000
    N4841    N        0.75418    0.85896    0.88863    1.000
    Si4842   Si       0.76884    0.88946    0.98074    1.000
    Si4843   Si       0.75930    0.93013    0.93239    1.000
    N4844    N        0.78767    0.91929    0.90170    1.000
    Si4845   Si       0.76222    0.97619    0.97138    1.000
    N4846    N        0.79492    0.00418    0.96930    1.000
    N4847    N        0.80868    0.98963    0.89145    1.000
    N4848    N        0.77634    0.93434    0.97323    1.000
    Si4849   Si       0.85288    0.07004    0.08764    1.000
    Si4850   Si       0.85833    0.03956    0.01899    1.000
    N4851    N        0.85696    0.11266    0.07869    1.000
    N4852    N        0.81836    0.05454    0.01333    1.000
    N4853    N        0.85756    0.12997    0.01337    1.000
    Si4854   Si       0.84276    0.14944    0.09602    1.000
    N4855    N        0.82446    0.19197    0.01590    1.000
    Si4856   Si       0.86485    0.19632    0.03200    1.000
    N4857    N        0.86624    0.23526    0.05444    1.000
    N4858    N        0.86768    0.17328    0.06961    1.000
    Si4859   Si       0.82219    0.14922    0.00285    1.000
    N4860    N        0.86168    0.05859    0.19334    1.000
    Si4861   Si       0.84639    0.03864    0.15757    1.000
    Si4862   Si       0.84825    0.09932    0.19983    1.000
    N4863    N        0.86740    0.05919    0.12740    1.000
    N4864    N        0.83912    0.10730    0.24244    1.000
    N4865    N        0.81415    0.11739    0.18008    1.000
    N4866    N        0.81404    0.25751    0.17117    1.000
    N4867    N        0.81647    0.18848    0.17279    1.000
    Si4868   Si       0.85100    0.21046    0.23210    1.000
    N4869    N        0.83175    0.24889    0.23779    1.000
    Si4870   Si       0.85708    0.19526    0.15709    1.000
    N4871    N        0.85602    0.22614    0.12649    1.000
    N4872    N        0.86315    0.15766    0.13408    1.000
    N4873    N        0.83491    0.17009    0.23260    1.000
    N4874    N        0.85228    0.03764    0.33708    1.000
    Si4875   Si       0.85033    0.05807    0.29982    1.000
    Si4876   Si       0.84280    0.12641    0.33163    1.000
    N4877    N        0.86653    0.09849    0.30550    1.000
    N4878    N        0.86332    0.13404    0.36789    1.000
    Si4879   Si       0.85519    0.14417    0.26165    1.000
    N4880    N        0.85050    0.15834    0.30171    1.000
    Si4881   Si       0.85767    0.20117    0.30308    1.000
    N4882    N        0.82032    0.22138    0.29413    1.000
    Si4883   Si       0.83259    0.02884    0.37429    1.000
    N4884    N        0.84355    0.05502    0.46572    1.000
    Si4885   Si       0.84780    0.02021    0.44023    1.000
    N4886    N        0.86545    0.03023    0.40233    1.000
    N4887    N        0.86759    0.10167    0.49936    1.000
    Si4888   Si       0.81450    0.19051    0.48351    1.000
    N4889    N        0.85080    0.21306    0.47478    1.000
    N4890    N        0.83216    0.25107    0.39484    1.000
    Si4891   Si       0.83760    0.21236    0.37569    1.000
    N4892    N        0.85419    0.18723    0.40801    1.000
    N4893    N        0.82079    0.14768    0.47946    1.000
    Si4894   Si       0.85311    0.25429    0.49342    1.000
    Si4895   Si       0.84672    0.14302    0.40657    1.000
    Si4896   Si       0.83710    0.06442    0.50959    1.000
    N4897    N        0.81888    0.02304    0.51480    1.000
    Si4898   Si       0.83290    0.12685    0.51414    1.000
    Si4899   Si       0.86795    0.02078    0.56415    1.000
    N4900    N        0.82728    0.01397    0.58096    1.000
    N4901    N        0.85526    0.13436    0.54954    1.000
    N4902    N        0.86713    0.05918    0.54269    1.000
    N4903    N        0.82066    0.25483    0.52290    1.000
    Si4904   Si       0.82765    0.22238    0.55061    1.000
    N4905    N        0.84312    0.13783    0.61888    1.000
    N4906    N        0.87012    0.21367    0.55262    1.000
    N4907    N        0.86547    0.01287    0.74500    1.000
    N4908    N        0.83955    0.04245    0.68758    1.000
    Si4909   Si       0.84286    0.10484    0.64869    1.000
    N4910    N        0.85994    0.19093    0.66322    1.000
    N4911    N        0.83039    0.13444    0.67898    1.000
    N4912    N        0.83837    0.25560    0.64479    1.000
    N4913    N        0.84201    0.16685    0.73675    1.000
    Si4914   Si       0.82946    0.16708    0.64869    1.000
    Si4915   Si       0.82617    0.05751    0.84018    1.000
    Si4916   Si       0.83658    0.12366    0.83252    1.000
    N4917    N        0.86437    0.03745    0.84316    1.000
    N4918    N        0.81877    0.09061    0.81362    1.000
    Si4919   Si       0.85028    0.13969    0.76881    1.000
    N4920    N        0.81737    0.20786    0.84626    1.000
    Si4921   Si       0.85298    0.19780    0.82262    1.000
    N4922    N        0.85128    0.22363    0.78894    1.000
    N4923    N        0.84569    0.15822    0.80681    1.000
    Si4924   Si       0.83979    0.21014    0.74972    1.000
    N4925    N        0.83690    0.03680    0.93742    1.000
    N4926    N        0.84784    0.11398    0.89603    1.000
    Si4927   Si       0.84214    0.07455    0.91723    1.000
    N4928    N        0.83334    0.09579    0.95368    1.000
    Si4929   Si       0.86864    0.10401    0.97837    1.000
    N4930    N        0.81077    0.06461    0.88121    1.000
    N4931    N        0.82136    0.15610    0.95800    1.000
    Si4932   Si       0.81148    0.17579    0.87594    1.000
    N4933    N        0.87299    0.25534    0.98813    1.000
    N4934    N        0.81620    0.22789    0.95565    1.000
    Si4935   Si       0.85061    0.25608    0.94992    1.000
    Si4936   Si       0.84966    0.14332    0.92733    1.000
    N4937    N        0.84547    0.17896    0.90337    1.000
    N4938    N        0.84573    0.33932    0.09864    1.000
    N4939    N        0.84746    0.37180    0.03791    1.000
    Si4940   Si       0.83318    0.33116    0.02383    1.000
    Si4941   Si       0.85648    0.26578    0.02620    1.000
    N4942    N        0.86753    0.30671    0.03179    1.000
    Si4943   Si       0.84865    0.37930    0.08219    1.000
    Si4944   Si       0.86235    0.40400    0.01269    1.000
    N4945    N        0.83619    0.43218    0.03114    1.000
    Si4946   Si       0.84510    0.46953    0.00881    1.000
    Si4947   Si       0.83501    0.48441    0.08557    1.000
    N4948    N        0.84374    0.49511    0.04200    1.000
    N4949    N        0.83537    0.36090    0.18014    1.000
    Si4950   Si       0.84063    0.26398    0.13676    1.000
    N4951    N        0.82156    0.31436    0.22667    1.000
    N4952    N        0.87265    0.41787    0.14946    1.000
    N4953    N        0.84866    0.48479    0.16649    1.000
    Si4954   Si       0.83499    0.46793    0.20391    1.000
    Si4955   Si       0.85188    0.40168    0.18257    1.000
    N4956    N        0.82289    0.42712    0.19960    1.000
    N4957    N        0.84356    0.33421    0.34018    1.000
    Si4958   Si       0.83628    0.31918    0.26596    1.000
    N4959    N        0.83291    0.36246    0.27635    1.000
    Si4960   Si       0.85187    0.36945    0.31472    1.000
    N4961    N        0.80862    0.29971    0.28899    1.000
    N4962    N        0.86298    0.44337    0.29846    1.000
    Si4963   Si       0.83463    0.43898    0.33003    1.000
    N4964    N        0.82342    0.49200    0.27305    1.000
    N4965    N        0.81942    0.39799    0.32537    1.000
    Si4966   Si       0.86431    0.47783    0.27302    1.000
    N4967    N        0.85033    0.43977    0.36936    1.000
    N4968    N        0.83787    0.27665    0.45973    1.000
    Si4969   Si       0.85976    0.26922    0.42195    1.000
    N4970    N        0.82648    0.44613    0.43967    1.000
    N4971    N        0.84067    0.50551    0.48802    1.000
    N4972    N        0.85377    0.50476    0.42122    1.000
    Si4973   Si       0.83862    0.42197    0.40723    1.000
    Si4974   Si       0.82607    0.49019    0.45094    1.000
    N4975    N        0.86671    0.39164    0.41907    1.000
    N4976    N        0.84939    0.28742    0.57912    1.000
    N4977    N        0.83953    0.34205    0.53500    1.000
    Si4978   Si       0.83674    0.29697    0.53896    1.000
    Si4979   Si       0.86006    0.37214    0.55820    1.000
    Si4980   Si       0.82070    0.26960    0.60751    1.000
    Si4981   Si       0.81736    0.36425    0.50347    1.000
    N4982    N        0.84009    0.40764    0.56932    1.000
    N4983    N        0.82389    0.47493    0.55904    1.000
    Si4984   Si       0.85763    0.44545    0.56163    1.000
    Si4985   Si       0.81109    0.49892    0.52319    1.000
    N4986    N        0.83939    0.40196    0.49507    1.000
    N4987    N        0.81397    0.37272    0.66791    1.000
    Si4988   Si       0.81675    0.28520    0.66944    1.000
    Si4989   Si       0.83411    0.35363    0.70074    1.000
    N4990    N        0.84507    0.31189    0.68787    1.000
    Si4991   Si       0.84141    0.47829    0.69523    1.000
    N4992    N        0.83095    0.48378    0.73601    1.000
    N4993    N        0.86740    0.38159    0.70984    1.000
    N4994    N        0.84146    0.43843    0.67837    1.000
    N4995    N        0.83655    0.33046    0.80376    1.000
    N4996    N        0.83277    0.28100    0.75841    1.000
    Si4997   Si       0.83197    0.31397    0.84513    1.000
    N4998    N        0.83861    0.36717    0.85695    1.000
    N4999    N        0.82506    0.27440    0.82816    1.000
    Si5000   Si       0.84236    0.32274    0.76148    1.000
    Si5001   Si       0.85752    0.36560    0.81797    1.000
    Si5002   Si       0.85337    0.26779    0.79480    1.000
    N5003    N        0.86892    0.30565    0.86750    1.000
    Si5004   Si       0.85119    0.48729    0.83624    1.000
    N5005    N        0.85615    0.46199    0.80117    1.000
    N5006    N        0.86674    0.39031    0.78297    1.000
    Si5007   Si       0.86582    0.47848    0.76270    1.000
    N5008    N        0.82223    0.44815    0.86322    1.000
    N5009    N        0.82244    0.36196    0.91990    1.000
    Si5010   Si       0.85921    0.36953    0.89488    1.000
    N5011    N        0.85009    0.29791    0.93681    1.000
    Si5012   Si       0.81739    0.32374    0.94399    1.000
    N5013    N        0.82041    0.34441    0.98304    1.000
    Si5014   Si       0.81943    0.38287    0.96109    1.000
    N5015    N        0.86218    0.46642    0.92268    1.000
    Si5016   Si       0.85884    0.44657    0.88430    1.000
    N5017    N        0.85314    0.40771    0.97034    1.000
    Si5018   Si       0.85150    0.53707    0.03640    1.000
    Si5019   Si       0.83726    0.61439    0.01527    1.000
    N5020    N        0.85408    0.61393    0.05657    1.000
    Si5021   Si       0.85745    0.58422    0.08601    1.000
    N5022    N        0.82290    0.51973    0.10802    1.000
    N5023    N        0.81821    0.58487    0.10755    1.000
    N5024    N        0.86509    0.54824    0.99693    1.000
    N5025    N        0.86509    0.71978    0.08814    1.000
    N5026    N        0.85040    0.68325    0.02912    1.000
    Si5027   Si       0.85937    0.72449    0.04559    1.000
    N5028    N        0.83189    0.66383    0.09764    1.000
    Si5029   Si       0.82913    0.70679    0.10748    1.000
    Si5030   Si       0.86026    0.65624    0.06518    1.000
    N5031    N        0.82333    0.74817    0.04314    1.000
    N5032    N        0.84948    0.54202    0.23498    1.000
    Si5033   Si       0.83593    0.57147    0.20557    1.000
    Si5034   Si       0.83997    0.52398    0.14676    1.000
    N5035    N        0.81574    0.62946    0.15157    1.000
    N5036    N        0.81933    0.55334    0.16990    1.000
    N5037    N        0.86561    0.59803    0.18531    1.000
    Si5038   Si       0.81238    0.52016    0.24359    1.000
    Si5039   Si       0.86561    0.74226    0.16852    1.000
    N5040    N        0.83152    0.72338    0.14746    1.000
    Si5041   Si       0.85030    0.69826    0.22202    1.000
    N5042    N        0.81571    0.72531    0.21827    1.000
    Si5043   Si       0.85347    0.63739    0.17444    1.000
    N5044    N        0.83843    0.65961    0.20828    1.000
    Si5045   Si       0.85176    0.58745    0.34881    1.000
    N5046    N        0.85113    0.62854    0.33494    1.000
    Si5047   Si       0.83944    0.64849    0.29670    1.000
    Si5048   Si       0.83387    0.72369    0.32843    1.000
    N5049    N        0.83009    0.74545    0.28567    1.000
    Si5050   Si       0.85479    0.66008    0.36475    1.000
    N5051    N        0.86551    0.70075    0.35300    1.000
    N5052    N        0.81892    0.68634    0.31519    1.000
    N5053    N        0.85913    0.56379    0.38396    1.000
    Si5054   Si       0.84436    0.52276    0.38267    1.000
    N5055    N        0.83551    0.73645    0.41342    1.000
    N5056    N        0.83605    0.72749    0.47963    1.000
    N5057    N        0.82410    0.65536    0.39496    1.000
    Si5058   Si       0.81876    0.65722    0.43872    1.000
    Si5059   Si       0.85695    0.71292    0.44295    1.000
    N5060    N        0.85974    0.66787    0.44581    1.000
    N5061    N        0.82539    0.53804    0.54832    1.000
    N5062    N        0.85915    0.58826    0.50545    1.000
    Si5063   Si       0.86108    0.55813    0.53786    1.000
    Si5064   Si       0.83260    0.51043    0.58103    1.000
    Si5065   Si       0.82119    0.60661    0.49994    1.000
    N5066    N        0.86805    0.51786    0.60786    1.000
    Si5067   Si       0.83281    0.66722    0.55768    1.000
    N5068    N        0.83422    0.70704    0.53887    1.000
    Si5069   Si       0.86058    0.74060    0.51638    1.000
    N5070    N        0.81553    0.67789    0.59814    1.000
    N5071    N        0.81119    0.63849    0.53089    1.000
    N5072    N        0.86629    0.62573    0.61955    1.000
    Si5073   Si       0.84074    0.52472    0.64255    1.000
    N5074    N        0.84650    0.56071    0.71669    1.000
    Si5075   Si       0.82775    0.58032    0.68454    1.000
    N5076    N        0.84903    0.56733    0.64829    1.000
    N5077    N        0.81633    0.62252    0.67156    1.000
    N5078    N        0.81808    0.50803    0.67477    1.000
    Si5079   Si       0.83226    0.69955    0.69162    1.000
    N5080    N        0.85462    0.68214    0.65813    1.000
    Si5081   Si       0.83628    0.70589    0.62428    1.000
    N5082    N        0.85634    0.67872    0.72201    1.000
    Si5083   Si       0.85496    0.63870    0.65942    1.000
    N5084    N        0.84263    0.73946    0.71231    1.000
    N5085    N        0.81692    0.73277    0.65508    1.000
    Si5086   Si       0.87365    0.71701    0.73678    1.000
    Si5087   Si       0.83101    0.61376    0.82978    1.000
    Si5088   Si       0.84109    0.57592    0.75750    1.000
    N5089    N        0.83314    0.58623    0.86275    1.000
    N5090    N        0.81578    0.51121    0.84104    1.000
    N5091    N        0.86688    0.63516    0.81729    1.000
    Si5092   Si       0.81893    0.54379    0.86776    1.000
    N5093    N        0.84320    0.61911    0.74676    1.000
    N5094    N        0.85338    0.72941    0.77390    1.000
    N5095    N        0.85231    0.69846    0.84474    1.000
    Si5096   Si       0.83162    0.71231    0.80923    1.000
    N5097    N        0.81290    0.67654    0.79415    1.000
    Si5098   Si       0.84133    0.56476    0.96319    1.000
    N5099    N        0.82804    0.52670    0.94495    1.000
    N5100    N        0.85854    0.53385    0.88794    1.000
    Si5101   Si       0.86160    0.57949    0.89434    1.000
    N5102    N        0.86837    0.58708    0.93587    1.000
    N5103    N        0.87031    0.63138    0.99197    1.000
    N5104    N        0.81426    0.59139    0.98520    1.000
    Si5105   Si       0.86277    0.51026    0.92552    1.000
    N5106    N        0.85125    0.67245    0.90781    1.000
    Si5107   Si       0.82593    0.67831    0.87351    1.000
    Si5108   Si       0.83547    0.69300    0.94288    1.000
    N5109    N        0.87085    0.70213    0.96528    1.000
    Si5110   Si       0.83222    0.79092    0.03678    1.000
    N5111    N        0.83441    0.80906    0.07659    1.000
    N5112    N        0.82272    0.86687    0.10860    1.000
    Si5113   Si       0.83209    0.90618    0.08892    1.000
    N5114    N        0.85600    0.93175    0.00867    1.000
    N5115    N        0.86194    0.99948    0.00693    1.000
    N5116    N        0.83846    0.94427    0.11080    1.000
    N5117    N        0.87222    0.90874    0.07285    1.000
    Si5118   Si       0.81406    0.92410    0.02176    1.000
    N5119    N        0.81223    0.88796    0.99712    1.000
    Si5120   Si       0.84424    0.85404    0.14563    1.000
    N5121    N        0.86525    0.77985    0.18869    1.000
    N5122    N        0.86404    0.82980    0.24178    1.000
    N5123    N        0.81202    0.84258    0.17348    1.000
    Si5124   Si       0.84997    0.87083    0.24770    1.000
    N5125    N        0.87000    0.82215    0.13310    1.000
    N5126    N        0.83086    0.89207    0.21674    1.000
    Si5127   Si       0.82062    0.97039    0.14100    1.000
    N5128    N        0.82573    0.00405    0.24383    1.000
    Si5129   Si       0.84397    0.92101    0.18630    1.000
    N5130    N        0.86204    0.89213    0.15788    1.000
    N5131    N        0.85413    0.99619    0.15810    1.000
    N5132    N        0.83181    0.86142    0.35053    1.000
    N5133    N        0.83632    0.88261    0.28680    1.000
    N5134    N        0.82295    0.76103    0.34940    1.000
    Si5135   Si       0.84020    0.95818    0.35481    1.000
    N5136    N        0.85817    0.96086    0.27564    1.000
    Si5137   Si       0.86194    0.91857    0.28550    1.000
    Si5138   Si       0.86112    0.89390    0.35419    1.000
    Si5139   Si       0.86740    0.99873    0.25387    1.000
    N5140    N        0.82021    0.94074    0.32075    1.000
    Si5141   Si       0.82426    0.85416    0.45190    1.000
    Si5142   Si       0.84571    0.76742    0.38496    1.000
    N5143    N        0.84648    0.81047    0.39336    1.000
    Si5144   Si       0.81423    0.83810    0.38330    1.000
    N5145    N        0.86642    0.85612    0.43755    1.000
    N5146    N        0.81135    0.81497    0.47094    1.000
    N5147    N        0.87056    0.99158    0.46328    1.000
    N5148    N        0.83951    0.92157    0.37921    1.000
    Si5149   Si       0.83770    0.91585    0.49069    1.000
    N5150    N        0.84537    0.91684    0.44525    1.000
    Si5151   Si       0.81450    0.91116    0.41335    1.000
    Si5152   Si       0.83002    0.81378    0.51071    1.000
    N5153    N        0.86008    0.78574    0.58866    1.000
    N5154    N        0.83035    0.77183    0.52922    1.000
    Si5155   Si       0.81908    0.79122    0.57262    1.000
    N5156    N        0.87067    0.82649    0.50190    1.000
    Si5157   Si       0.85091    0.88827    0.56936    1.000
    N5158    N        0.85738    0.89853    0.52693    1.000
    Si5159   Si       0.82246    0.98612    0.61369    1.000
    N5160    N        0.86412    0.90641    0.60837    1.000
    Si5161   Si       0.84723    0.98925    0.50112    1.000
    N5162    N        0.87169    0.98749    0.53704    1.000
    N5163    N        0.82096    0.95476    0.49837    1.000
    N5164    N        0.86979    0.78526    0.65935    1.000
    Si5165   Si       0.83585    0.76385    0.67644    1.000
    Si5166   Si       0.85174    0.80875    0.62438    1.000
    Si5167   Si       0.83465    0.83422    0.69205    1.000
    N5168    N        0.85399    0.84448    0.64996    1.000
    N5169    N        0.81504    0.79719    0.69460    1.000
    Si5170   Si       0.84100    0.00595    0.71173    1.000
    N5171    N        0.85959    0.97349    0.69132    1.000
    N5172    N        0.86343    0.97506    0.62353    1.000
    Si5173   Si       0.85038    0.88757    0.64663    1.000
    Si5174   Si       0.84693    0.93612    0.70978    1.000
    N5175    N        0.86151    0.90260    0.68784    1.000
    Si5176   Si       0.84095    0.83700    0.79237    1.000
    N5177    N        0.85385    0.83354    0.83588    1.000
    N5178    N        0.85135    0.80193    0.76633    1.000
    N5179    N        0.86080    0.86989    0.77849    1.000
    Si5180   Si       0.82463    0.82265    0.86567    1.000
    Si5181   Si       0.83869    0.76296    0.75229    1.000
    N5182    N        0.85454    0.92764    0.81662    1.000
    Si5183   Si       0.86029    0.97735    0.77034    1.000
    N5184    N        0.82040    0.98050    0.78741    1.000
    N5185    N        0.86322    0.93799    0.74962    1.000
    Si5186   Si       0.81423    0.94094    0.80748    1.000
    N5187    N        0.83018    0.78281    0.88250    1.000
    N5188    N        0.82072    0.85115    0.89715    1.000
    N5189    N        0.84557    0.83231    0.95995    1.000
    Si5190   Si       0.85317    0.85771    0.92535    1.000
    Si5191   Si       0.82998    0.76702    0.92389    1.000
    N5192    N        0.87230    0.77001    0.93706    1.000
    Si5193   Si       0.84125    0.99846    0.91898    1.000
    Si5194   Si       0.85551    0.89112    0.98846    1.000
    Si5195   Si       0.82773    0.98066    0.98729    1.000
    N5196    N        0.85939    0.89493    0.94594    1.000
    N5197    N        0.84102    0.96552    0.94904    1.000
    Si5198   Si       0.86153    0.93415    0.92863    1.000
    N5199    N        0.84996    0.93122    0.88495    1.000
    Si5200   Si       0.80926    0.94883    0.87822    1.000
    Si5201   Si       0.90483    0.01768    0.07267    1.000
    N5202    N        0.92802    0.04077    0.10606    1.000
    Si5203   Si       0.92650    0.05699    0.00662    1.000
    N5204    N        0.88590    0.06667    0.99510    1.000
    N5205    N        0.87326    0.04392    0.05820    1.000
    Si5206   Si       0.88250    0.13573    0.04911    1.000
    N5207    N        0.92357    0.14017    0.04640    1.000
    N5208    N        0.90035    0.19880    0.00806    1.000
    N5209    N        0.91883    0.21698    0.09757    1.000
    Si5210   Si       0.87647    0.21423    0.09110    1.000
    Si5211   Si       0.91191    0.23871    0.99859    1.000
    N5212    N        0.91798    0.11099    0.12864    1.000
    Si5213   Si       0.90737    0.06919    0.13353    1.000
    N5214    N        0.91238    0.06896    0.23736    1.000
    Si5215   Si       0.90163    0.04438    0.20471    1.000
    Si5216   Si       0.91140    0.11097    0.22368    1.000
    N5217    N        0.88548    0.12156    0.19084    1.000
    N5218    N        0.92508    0.05526    0.16982    1.000
    N5219    N        0.92028    0.18047    0.15548    1.000
    Si5220   Si       0.91513    0.20714    0.19120    1.000
    N5221    N        0.87280    0.20748    0.19492    1.000
    Si5222   Si       0.89690    0.14093    0.15242    1.000
    N5223    N        0.92623    0.24933    0.19408    1.000
    Si5224   Si       0.90687    0.11600    0.29730    1.000
    Si5225   Si       0.92145    0.04818    0.27622    1.000
    N5226    N        0.88232    0.02857    0.28243    1.000
    Si5227   Si       0.90584    0.11961    0.36825    1.000
    Si5228   Si       0.88629    0.01334    0.32406    1.000
    N5229    N        0.92834    0.02113    0.32514    1.000
    N5230    N        0.91612    0.07812    0.37253    1.000
    N5231    N        0.91797    0.13740    0.33139    1.000
    N5232    N        0.90171    0.13749    0.25884    1.000
    N5233    N        0.88140    0.20462    0.26466    1.000
    Si5234   Si       0.91601    0.17831    0.25795    1.000
    Si5235   Si       0.90197    0.24279    0.34664    1.000
    N5236    N        0.92192    0.24925    0.30943    1.000
    N5237    N        0.86824    0.21663    0.34400    1.000
    N5238    N        0.87231    0.12372    0.43380    1.000
    N5239    N        0.90833    0.06432    0.44348    1.000
    Si5240   Si       0.90669    0.04627    0.40399    1.000
    Si5241   Si       0.87407    0.08751    0.45806    1.000
    Si5242   Si       0.87729    0.20333    0.44165    1.000
    N5243    N        0.91249    0.17979    0.44833    1.000
    Si5244   Si       0.91386    0.13850    0.43796    1.000
    N5245    N        0.89178    0.24231    0.42894    1.000
    N5246    N        0.89911    0.09950    0.58694    1.000
    N5247    N        0.89955    0.03068    0.59269    1.000
    Si5248   Si       0.88579    0.10037    0.53922    1.000
    Si5249   Si       0.90361    0.06803    0.61599    1.000
    N5250    N        0.92413    0.12189    0.53381    1.000
    Si5251   Si       0.87428    0.13649    0.58850    1.000
    N5252    N        0.90437    0.16578    0.59790    1.000
    Si5253   Si       0.89863    0.20492    0.58099    1.000
    N5254    N        0.89890    0.23144    0.61620    1.000
    Si5255   Si       0.90991    0.11166    0.73146    1.000
    N5256    N        0.89730    0.07032    0.71971    1.000
    Si5257   Si       0.88131    0.05328    0.68192    1.000
    N5258    N        0.88071    0.08240    0.65039    1.000
    N5259    N        0.90352    0.01876    0.67488    1.000
    Si5260   Si       0.87042    0.17682    0.70454    1.000
    Si5261   Si       0.90848    0.24111    0.71461    1.000
    N5262    N        0.90575    0.15094    0.71147    1.000
    Si5263   Si       0.87310    0.23163    0.65100    1.000
    N5264    N        0.87290    0.21771    0.72318    1.000
    Si5265   Si       0.89977    0.09838    0.80073    1.000
    N5266    N        0.90118    0.05741    0.78955    1.000
    Si5267   Si       0.89625    0.02491    0.81717    1.000
    N5268    N        0.88614    0.11769    0.76625    1.000
    N5269    N        0.92362    0.02297    0.85041    1.000
    Si5270   Si       0.90135    0.03943    0.74988    1.000
    N5271    N        0.87652    0.10724    0.83652    1.000
    N5272    N        0.88695    0.20421    0.85224    1.000
    Si5273   Si       0.92861    0.21271    0.85053    1.000
    Si5274   Si       0.89092    0.03404    0.87830    1.000
    Si5275   Si       0.88731    0.10416    0.87848    1.000
    N5276    N        0.88875    0.06920    0.90102    1.000
    N5277    N        0.88533    0.13102    0.94975    1.000
    N5278    N        0.91821    0.13081    0.88675    1.000
    N5279    N        0.87337    0.24755    0.91286    1.000
    Si5280   Si       0.87817    0.20678    0.89556    1.000
    Si5281   Si       0.92023    0.14712    0.92730    1.000
    N5282    N        0.90921    0.18877    0.92438    1.000
    N5283    N        0.90666    0.30606    0.09045    1.000
    Si5284   Si       0.91006    0.30556    0.04481    1.000
    Si5285   Si       0.92643    0.35933    0.00235    1.000
    N5286    N        0.92294    0.26340    0.03276    1.000
    Si5287   Si       0.87823    0.32140    0.11829    1.000
    Si5288   Si       0.92054    0.47008    0.00704    1.000
    N5289    N        0.90410    0.39369    0.02064    1.000
    N5290    N        0.89028    0.39728    0.08900    1.000
    Si5291   Si       0.91711    0.41192    0.05783    1.000
    N5292    N        0.91996    0.45259    0.04784    1.000
    N5293    N        0.87297    0.47936    0.10688    1.000
    N5294    N        0.89732    0.31448    0.20513    1.000
    Si5295   Si       0.90817    0.28567    0.17382    1.000
    N5296    N        0.89420    0.35274    0.14383    1.000
    Si5297   Si       0.87693    0.34521    0.18349    1.000
    Si5298   Si       0.90497    0.32142    0.24649    1.000
    N5299    N        0.87323    0.29037    0.14864    1.000
    N5300    N        0.91820    0.46215    0.16999    1.000
    N5301    N        0.88697    0.38424    0.20654    1.000
    Si5302   Si       0.90325    0.39307    0.12956    1.000
    N5303    N        0.87028    0.47003    0.22873    1.000
    Si5304   Si       0.90872    0.48226    0.20972    1.000
    Si5305   Si       0.88111    0.46250    0.14625    1.000
    Si5306   Si       0.92192    0.39145    0.23279    1.000
    Si5307   Si       0.90909    0.28953    0.30180    1.000
    N5308    N        0.88673    0.28573    0.34206    1.000
    N5309    N        0.87692    0.30790    0.27632    1.000
    Si5310   Si       0.92342    0.35765    0.33783    1.000
    Si5311   Si       0.87383    0.31795    0.36637    1.000
    N5312    N        0.93329    0.35460    0.25066    1.000
    N5313    N        0.89194    0.38410    0.32066    1.000
    N5314    N        0.91304    0.45127    0.33744    1.000
    Si5315   Si       0.90153    0.42346    0.30625    1.000
    N5316    N        0.92093    0.41925    0.26770    1.000
    Si5317   Si       0.88676    0.46420    0.36759    1.000
    N5318    N        0.87304    0.50261    0.35275    1.000
    N5319    N        0.90909    0.34319    0.37597    1.000
    Si5320   Si       0.90988    0.32291    0.41648    1.000
    N5321    N        0.91685    0.34960    0.44906    1.000
    N5322    N        0.86908    0.30737    0.40840    1.000
    N5323    N        0.91029    0.49715    0.47419    1.000
    Si5324   Si       0.89392    0.49615    0.43061    1.000
    N5325    N        0.90791    0.46441    0.40628    1.000
    N5326    N        0.90823    0.41524    0.47224    1.000
    Si5327   Si       0.90596    0.38970    0.43718    1.000
    N5328    N        0.89041    0.35031    0.58257    1.000
    Si5329   Si       0.88577    0.30752    0.59141    1.000
    N5330    N        0.91819    0.28245    0.57604    1.000
    Si5331   Si       0.92108    0.35820    0.54988    1.000
    Si5332   Si       0.91687    0.28368    0.53052    1.000
    N5333    N        0.87540    0.28255    0.51696    1.000
    N5334    N        0.89336    0.38933    0.53440    1.000
    Si5335   Si       0.88005    0.49425    0.50537    1.000
    N5336    N        0.88722    0.45489    0.58986    1.000
    Si5337   Si       0.90496    0.49620    0.60444    1.000
    Si5338   Si       0.88017    0.41526    0.50380    1.000
    N5339    N        0.87714    0.45460    0.52270    1.000
    Si5340   Si       0.90930    0.43212    0.62053    1.000
    Si5341   Si       0.89928    0.35830    0.62625    1.000
    N5342    N        0.91769    0.32194    0.69124    1.000
    Si5343   Si       0.88544    0.30013    0.67207    1.000
    N5344    N        0.88320    0.31643    0.63291    1.000
    Si5345   Si       0.91983    0.30958    0.73470    1.000
    N5346    N        0.89486    0.25872    0.67798    1.000
    Si5347   Si       0.87708    0.41407    0.68302    1.000
    Si5348   Si       0.92852    0.43209    0.73435    1.000
    N5349    N        0.88966    0.39734    0.64244    1.000
    N5350    N        0.92667    0.47191    0.63545    1.000
    N5351    N        0.92897    0.38845    0.74260    1.000
    N5352    N        0.88059    0.50009    0.68881    1.000
    N5353    N        0.91381    0.43721    0.69239    1.000
    Si5354   Si       0.91818    0.47767    0.67895    1.000
    N5355    N        0.89819    0.35254    0.82905    1.000
    N5356    N        0.89352    0.28342    0.80706    1.000
    Si5357   Si       0.90264    0.31092    0.83918    1.000
    N5358    N        0.88392    0.33188    0.75320    1.000
    Si5359   Si       0.88817    0.37430    0.74797    1.000
    Si5360   Si       0.92929    0.26505    0.78939    1.000
    N5361    N        0.92159    0.26836    0.74586    1.000
    Si5362   Si       0.88305    0.42851    0.79481    1.000
    N5363    N        0.88347    0.47100    0.86067    1.000
    N5364    N        0.92072    0.41519    0.81331    1.000
    N5365    N        0.89366    0.44619    0.75601    1.000
    Si5366   Si       0.92595    0.47765    0.85475    1.000
    N5367    N        0.89234    0.34619    0.90906    1.000
    Si5368   Si       0.88214    0.29644    0.90791    1.000
    N5369    N        0.91228    0.32336    0.98070    1.000
    N5370    N        0.92567    0.29343    0.91535    1.000
    Si5371   Si       0.91885    0.41303    0.89622    1.000
    N5372    N        0.88272    0.46459    0.98773    1.000
    N5373    N        0.87680    0.40871    0.89269    1.000
    N5374    N        0.91639    0.42204    0.94087    1.000
    Si5375   Si       0.87877    0.44065    0.95194    1.000
    Si5376   Si       0.89153    0.52059    0.09977    1.000
    N5377    N        0.87352    0.54710    0.07234    1.000
    N5378    N        0.88248    0.59918    0.11768    1.000
    N5379    N        0.92774    0.51351    0.00292    1.000
    Si5380   Si       0.89865    0.74525    0.09928    1.000
    N5381    N        0.92094    0.67840    0.01151    1.000
    N5382    N        0.90166    0.65594    0.07901    1.000
    N5383    N        0.89849    0.73617    0.03109    1.000
    Si5384   Si       0.90461    0.63591    0.11812    1.000
    Si5385   Si       0.87932    0.67363    0.99619    1.000
    Si5386   Si       0.93176    0.72117    0.00690    1.000
    Si5387   Si       0.93197    0.65752    0.04807    1.000
    N5388    N        0.91045    0.52528    0.21620    1.000
    N5389    N        0.88183    0.53710    0.13896    1.000
    Si5390   Si       0.89243    0.57729    0.15705    1.000
    Si5391   Si       0.91006    0.68044    0.18441    1.000
    N5392    N        0.89958    0.75457    0.14180    1.000
    N5393    N        0.87951    0.71114    0.19352    1.000
    N5394    N        0.92001    0.66419    0.22182    1.000
    N5395    N        0.88872    0.65390    0.15521    1.000
    Si5396   Si       0.89601    0.60375    0.29821    1.000
    Si5397   Si       0.89421    0.52708    0.32342    1.000
    N5398    N        0.91256    0.57794    0.26637    1.000
    N5399    N        0.88265    0.57002    0.32247    1.000
    Si5400   Si       0.89091    0.54275    0.25140    1.000
    Si5401   Si       0.92705    0.62426    0.36545    1.000
    N5402    N        0.88777    0.51226    0.28328    1.000
    N5403    N        0.92705    0.62303    0.32297    1.000
    N5404    N        0.87862    0.63793    0.27703    1.000
    Si5405   Si       0.90122    0.67027    0.26048    1.000
    Si5406   Si       0.89732    0.73005    0.34793    1.000
    N5407    N        0.89597    0.74969    0.30855    1.000
    N5408    N        0.87169    0.70232    0.25925    1.000
    Si5409   Si       0.87112    0.74420    0.27239    1.000
    N5410    N        0.92529    0.58226    0.37591    1.000
    N5411    N        0.88763    0.59989    0.43815    1.000
    Si5412   Si       0.89258    0.59394    0.48050    1.000
    Si5413   Si       0.89722    0.57108    0.40622    1.000
    N5414    N        0.91373    0.53464    0.42254    1.000
    Si5415   Si       0.88773    0.64291    0.42708    1.000
    Si5416   Si       0.92360    0.66013    0.48494    1.000
    Si5417   Si       0.91466    0.72771    0.47807    1.000
    N5418    N        0.89205    0.64553    0.38330    1.000
    N5419    N        0.90033    0.72648    0.43734    1.000
    N5420    N        0.92731    0.65351    0.44212    1.000
    N5421    N        0.88707    0.76146    0.37662    1.000
    N5422    N        0.89091    0.76097    0.49248    1.000
    Si5423   Si       0.91009    0.60756    0.54989    1.000
    N5424    N        0.89116    0.52675    0.53450    1.000
    N5425    N        0.91644    0.62440    0.50887    1.000
    N5426    N        0.87918    0.58279    0.57019    1.000
    Si5427   Si       0.87252    0.58210    0.61379    1.000
    N5428    N        0.93066    0.62907    0.58293    1.000
    N5429    N        0.87608    0.66572    0.56508    1.000
    Si5430   Si       0.89736    0.65241    0.60080    1.000
    Si5431   Si       0.90212    0.69492    0.54479    1.000
    N5432    N        0.89020    0.73588    0.54948    1.000
    Si5433   Si       0.88562    0.75293    0.58822    1.000
    N5434    N        0.90240    0.69410    0.50087    1.000
    N5435    N        0.87402    0.71956    0.61128    1.000
    N5436    N        0.92469    0.75883    0.60578    1.000
    N5437    N        0.91325    0.58039    0.63068    1.000
    Si5438   Si       0.91211    0.59391    0.67194    1.000
    N5439    N        0.88417    0.62374    0.68761    1.000
    Si5440   Si       0.88149    0.53273    0.71752    1.000
    N5441    N        0.91113    0.55774    0.69798    1.000
    Si5442   Si       0.87521    0.63943    0.72645    1.000
    Si5443   Si       0.89323    0.70294    0.64792    1.000
    N5444    N        0.91768    0.67003    0.63606    1.000
    N5445    N        0.91087    0.72849    0.67617    1.000
    Si5446   Si       0.89650    0.61564    0.79104    1.000
    Si5447   Si       0.89942    0.53851    0.79004    1.000
    Si5448   Si       0.89451    0.53765    0.86106    1.000
    N5449    N        0.88730    0.51635    0.75544    1.000
    Si5450   Si       0.92133    0.61676    0.86352    1.000
    N5451    N        0.87805    0.52218    0.82431    1.000
    N5452    N        0.87863    0.57654    0.78205    1.000
    N5453    N        0.89918    0.57960    0.87220    1.000
    N5454    N        0.90729    0.63893    0.75713    1.000
    Si5455   Si       0.88603    0.67235    0.83477    1.000
    N5456    N        0.91655    0.68631    0.80796    1.000
    N5457    N        0.91954    0.73902    0.85372    1.000
    N5458    N        0.90407    0.65535    0.86916    1.000
    Si5459   Si       0.92839    0.67564    0.76687    1.000
    N5460    N        0.91513    0.71176    0.74611    1.000
    Si5461   Si       0.93170    0.75137    0.74985    1.000
    N5462    N        0.92056    0.58304    0.97805    1.000
    N5463    N        0.90225    0.52255    0.94188    1.000
    Si5464   Si       0.90520    0.54158    0.98044    1.000
    Si5465   Si       0.89415    0.61118    0.96066    1.000
    N5466    N        0.91350    0.64394    0.93748    1.000
    N5467    N        0.92757    0.74576    0.97189    1.000
    N5468    N        0.91156    0.71209    0.91543    1.000
    Si5469   Si       0.89607    0.67234    0.90980    1.000
    Si5470   Si       0.89362    0.73461    0.94714    1.000
    Si5471   Si       0.90605    0.77876    0.03723    1.000
    N5472    N        0.90208    0.84642    0.07336    1.000
    N5473    N        0.89723    0.78275    0.08040    1.000
    N5474    N        0.87882    0.86516    0.01060    1.000
    Si5475   Si       0.89514    0.88131    0.04822    1.000
    Si5476   Si       0.87543    0.81760    0.08986    1.000
    N5477    N        0.87147    0.79527    0.01788    1.000
    Si5478   Si       0.88428    0.96461    0.02465    1.000
    N5479    N        0.89088    0.97583    0.06779    1.000
    Si5480   Si       0.88135    0.94512    0.09621    1.000
    N5481    N        0.92675    0.96358    0.01331    1.000
    Si5482   Si       0.90111    0.79783    0.15551    1.000
    N5483    N        0.91426    0.82063    0.19031    1.000
    Si5484   Si       0.88810    0.80118    0.22163    1.000
    N5485    N        0.92502    0.89293    0.19114    1.000
    N5486    N        0.90965    0.93515    0.12773    1.000
    N5487    N        0.92425    0.98997    0.16587    1.000
    N5488    N        0.89249    0.00617    0.22025    1.000
    Si5489   Si       0.90262    0.90030    0.15082    1.000
    N5490    N        0.87829    0.94299    0.19644    1.000
    Si5491   Si       0.88633    0.98201    0.18433    1.000
    Si5492   Si       0.90443    0.91741    0.22039    1.000
    Si5493   Si       0.92802    0.76963    0.28408    1.000
    N5494    N        0.89816    0.76998    0.24879    1.000
    Si5495   Si       0.90908    0.94875    0.32509    1.000
    N5496    N        0.88518    0.91168    0.32171    1.000
    N5497    N        0.87798    0.97692    0.34229    1.000
    N5498    N        0.88575    0.89803    0.25291    1.000
    Si5499   Si       0.88427    0.82471    0.41102    1.000
    N5500    N        0.90213    0.79571    0.43977    1.000
    Si5501   Si       0.90135    0.80085    0.48238    1.000
    N5502    N        0.92279    0.82585    0.38686    1.000
    Si5503   Si       0.91231    0.76101    0.41406    1.000
    N5504    N        0.88993    0.88253    0.38478    1.000
    N5505    N        0.90806    0.92908    0.43177    1.000
    Si5506   Si       0.90547    0.96344    0.45934    1.000
    Si5507   Si       0.88001    0.89649    0.42458    1.000
    N5508    N        0.88529    0.85958    0.56459    1.000
    Si5509   Si       0.88342    0.86325    0.52187    1.000
    Si5510   Si       0.92142    0.85354    0.58797    1.000
    N5511    N        0.91296    0.82561    0.61790    1.000
    N5512    N        0.91861    0.87607    0.50344    1.000
    Si5513   Si       0.91000    0.96744    0.53790    1.000
    Si5514   Si       0.88904    0.94127    0.61040    1.000
    N5515    N        0.91342    0.94953    0.57621    1.000
    N5516    N        0.91170    0.94550    0.49910    1.000
    N5517    N        0.91216    0.87194    0.66582    1.000
    Si5518   Si       0.90326    0.76972    0.68781    1.000
    Si5519   Si       0.89349    0.87547    0.70438    1.000
    N5520    N        0.89634    0.77225    0.72953    1.000
    Si5521   Si       0.89881    0.83091    0.66025    1.000
    N5522    N        0.87598    0.83642    0.70791    1.000
    N5523    N        0.92324    0.87950    0.73454    1.000
    Si5524   Si       0.88744    0.81234    0.74495    1.000
    Si5525   Si       0.88928    0.97990    0.66008    1.000
    N5526    N        0.91280    0.94304    0.64779    1.000
    Si5527   Si       0.89050    0.84116    0.85769    1.000
    N5528    N        0.92022    0.82083    0.77113    1.000
    N5529    N        0.92333    0.81595    0.84333    1.000
    N5530    N        0.90403    0.88504    0.85714    1.000
    N5531    N        0.88981    0.98676    0.79940    1.000
    N5532    N        0.91467    0.92141    0.79068    1.000
    N5533    N        0.91131    0.95336    0.85581    1.000
    Si5534   Si       0.91818    0.95682    0.81438    1.000
    Si5535   Si       0.87937    0.92116    0.85444    1.000
    Si5536   Si       0.87410    0.91102    0.78264    1.000
    N5537    N        0.91199    0.81606    0.96665    1.000
    N5538    N        0.88430    0.83488    0.90146    1.000
    Si5539   Si       0.89813    0.80327    0.92808    1.000
    Si5540   Si       0.87755    0.82710    0.99086    1.000
    N5541    N        0.87676    0.99825    0.89616    1.000
    Si5542   Si       0.91324    0.97518    0.89377    1.000
    N5543    N        0.90411    0.94446    0.92542    1.000
    N5544    N        0.96345    0.09375    0.07702    1.000
    Si5545   Si       0.95837    0.04993    0.07772    1.000
    Si5546   Si       0.97384    0.10387    0.03523    1.000
    Si5547   Si       0.95858    0.11483    0.11428    1.000
    N5548    N        0.93871    0.02992    0.04399    1.000
    N5549    N        0.95322    0.08923    0.00097    1.000
    N5550    N        0.96103    0.15770    0.10279    1.000
    N5551    N        0.96720    0.20725    0.05720    1.000
    Si5552   Si       0.95698    0.16346    0.05857    1.000
    Si5553   Si       0.94030    0.24041    0.06568    1.000
    N5554    N        0.98706    0.14727    0.03398    1.000
    N5555    N        0.95094    0.11563    0.20691    1.000
    Si5556   Si       0.94362    0.01907    0.14385    1.000
    Si5557   Si       0.96402    0.08090    0.18206    1.000
    N5558    N        0.98529    0.10172    0.14818    1.000
    N5559    N        0.98530    0.02624    0.15032    1.000
    N5560    N        0.98353    0.05565    0.21130    1.000
    Si5561   Si       0.94547    0.19290    0.12230    1.000
    N5562    N        0.97720    0.21941    0.13711    1.000
    N5563    N        0.93514    0.18181    0.21970    1.000
    Si5564   Si       0.96748    0.15498    0.20766    1.000
    N5565    N        0.98177    0.05693    0.35843    1.000
    N5566    N        0.96147    0.03089    0.27366    1.000
    Si5567   Si       0.94209    0.05970    0.34120    1.000
    N5568    N        0.93113    0.08005    0.30394    1.000
    Si5569   Si       0.95336    0.16111    0.32291    1.000
    N5570    N        0.96557    0.18168    0.36017    1.000
    Si5571   Si       0.95687    0.23132    0.29366    1.000
    N5572    N        0.94410    0.18833    0.29010    1.000
    Si5573   Si       0.97276    0.22368    0.36032    1.000
    N5574    N        0.97469    0.23945    0.25326    1.000
    N5575    N        0.98974    0.23312    0.32084    1.000
    N5576    N        0.96353    0.04991    0.48824    1.000
    N5577    N        0.97708    0.07804    0.42895    1.000
    Si5578   Si       0.94618    0.07717    0.45782    1.000
    N5579    N        0.93704    0.11960    0.46731    1.000
    N5580    N        0.93914    0.01754    0.39727    1.000
    N5581    N        0.92982    0.13909    0.39899    1.000
    Si5582   Si       0.93384    0.24884    0.41812    1.000
    N5583    N        0.97973    0.17429    0.43562    1.000
    Si5584   Si       0.96930    0.15855    0.39812    1.000
    Si5585   Si       0.95218    0.19520    0.46085    1.000
    N5586    N        0.96087    0.23580    0.45144    1.000
    N5587    N        0.93493    0.24063    0.37553    1.000
    N5588    N        0.95742    0.06920    0.55966    1.000
    Si5589   Si       0.93976    0.10945    0.57279    1.000
    Si5590   Si       0.93515    0.02780    0.56877    1.000
    Si5591   Si       0.98019    0.07138    0.52153    1.000
    N5592    N        0.96839    0.01327    0.58898    1.000
    N5593    N        0.96566    0.13510    0.59408    1.000
    Si5594   Si       0.95124    0.13821    0.50485    1.000
    Si5595   Si       0.96117    0.21338    0.53245    1.000
    Si5596   Si       0.94829    0.17421    0.60500    1.000
    N5597    N        0.94268    0.20922    0.57284    1.000
    N5598    N        0.94290    0.25074    0.52000    1.000
    Si5599   Si       0.93641    0.24785    0.59759    1.000
    N5600    N        0.95362    0.18151    0.50416    1.000
    N5601    N        0.97268    0.26141    0.61436    1.000
    Si5602   Si       0.98386    0.07885    0.73213    1.000
    N5603    N        0.94505    0.06993    0.62807    1.000
    Si5604   Si       0.94261    0.02343    0.69957    1.000
    N5605    N        0.96497    0.05913    0.69787    1.000
    Si5606   Si       0.97737    0.06809    0.65615    1.000
    N5607    N        0.93632    0.01503    0.74163    1.000
    N5608    N        0.93882    0.21338    0.70449    1.000
    N5609    N        0.97233    0.16345    0.69800    1.000
    N5610    N        0.96749    0.19676    0.63479    1.000
    Si5611   Si       0.96867    0.20102    0.67762    1.000
    Si5612   Si       0.94039    0.17348    0.72511    1.000
    N5613    N        0.93749    0.11647    0.81365    1.000
    Si5614   Si       0.96073    0.13045    0.77928    1.000
    N5615    N        0.98096    0.11262    0.86455    1.000
    N5616    N        0.95031    0.10481    0.74575    1.000
    Si5617   Si       0.94530    0.13706    0.85386    1.000
    N5618    N        0.93789    0.22914    0.81016    1.000
    N5619    N        0.95149    0.16915    0.76631    1.000
    Si5620   Si       0.96273    0.19459    0.80075    1.000
    N5621    N        0.95343    0.17787    0.84093    1.000
    Si5622   Si       0.96058    0.01778    0.87266    1.000
    N5623    N        0.94297    0.02493    0.98112    1.000
    Si5624   Si       0.96058    0.02958    0.94143    1.000
    Si5625   Si       0.97107    0.10136    0.96205    1.000
    N5626    N        0.96449    0.07264    0.92988    1.000
    N5627    N        0.93855    0.01058    0.91039    1.000
    N5628    N        0.95725    0.14211    0.94847    1.000
    N5629    N        0.93303    0.24747    0.96399    1.000
    N5630    N        0.93788    0.23679    0.88542    1.000
    Si5631   Si       0.93735    0.22240    0.92984    1.000
    N5632    N        0.97800    0.20852    0.92833    1.000
    Si5633   Si       0.96802    0.35659    0.06120    1.000
    Si5634   Si       0.94456    0.30458    0.10927    1.000
    N5635    N        0.96168    0.34215    0.10210    1.000
    N5636    N        0.96147    0.26927    0.09057    1.000
    N5637    N        0.93889    0.33719    0.03812    1.000
    N5638    N        0.95733    0.39975    0.06550    1.000
    Si5639   Si       0.95026    0.47694    0.07118    1.000
    N5640    N        0.97605    0.45596    0.09803    1.000
    N5641    N        0.97737    0.48741    0.03783    1.000
    N5642    N        0.94517    0.29870    0.15399    1.000
    Si5643   Si       0.97602    0.37268    0.13036    1.000
    Si5644   Si       0.98511    0.30436    0.17042    1.000
    Si5645   Si       0.95043    0.26575    0.22586    1.000
    N5646    N        0.98366    0.28761    0.21151    1.000
    N5647    N        0.99291    0.34862    0.16451    1.000
    N5648    N        0.94915    0.47068    0.22602    1.000
    Si5649   Si       0.98220    0.48319    0.20259    1.000
    N5650    N        0.94457    0.40037    0.14102    1.000
    Si5651   Si       0.94977    0.43193    0.17180    1.000
    N5652    N        0.95336    0.40674    0.20732    1.000
    Si5653   Si       0.96219    0.32965    0.27695    1.000
    N5654    N        0.93517    0.29070    0.25740    1.000
    N5655    N        0.93576    0.32342    0.31271    1.000
    N5656    N        0.98819    0.36620    0.28508    1.000
    N5657    N        0.95873    0.38257    0.34666    1.000
    Si5658   Si       0.94997    0.47601    0.33774    1.000
    N5659    N        0.96494    0.46638    0.29688    1.000
    Si5660   Si       0.95610    0.44231    0.25755    1.000
    N5661    N        0.96827    0.46150    0.37441    1.000
    N5662    N        0.93913    0.29200    0.41876    1.000
    N5663    N        0.97711    0.32658    0.46619    1.000
    Si5664   Si       0.94095    0.34437    0.48545    1.000
    Si5665   Si       0.97646    0.31242    0.42519    1.000
    N5666    N        0.98506    0.34205    0.39614    1.000
    Si5667   Si       0.96907    0.38232    0.38874    1.000
    Si5668   Si       0.94748    0.44617    0.40970    1.000
    Si5669   Si       0.95125    0.41686    0.48413    1.000
    Si5670   Si       0.95170    0.48359    0.48878    1.000
    N5671    N        0.97214    0.43975    0.45079    1.000
    N5672    N        0.93824    0.40244    0.40925    1.000
    N5673    N        0.95950    0.36675    0.56680    1.000
    Si5674   Si       0.96452    0.37951    0.60878    1.000
    N5675    N        0.92689    0.32426    0.52113    1.000
    N5676    N        0.96055    0.38011    0.50312    1.000
    N5677    N        0.94686    0.41825    0.61191    1.000
    N5678    N        0.95800    0.44900    0.51203    1.000
    N5679    N        0.98576    0.31265    0.66258    1.000
    N5680    N        0.94071    0.35427    0.63421    1.000
    Si5681   Si       0.96546    0.36713    0.73231    1.000
    Si5682   Si       0.95355    0.33907    0.67260    1.000
    N5683    N        0.97288    0.37381    0.68869    1.000
    N5684    N        0.96164    0.32386    0.73985    1.000
    Si5685   Si       0.96839    0.45836    0.62065    1.000
    Si5686   Si       0.97981    0.47960    0.73328    1.000
    N5687    N        0.95001    0.49659    0.70281    1.000
    N5688    N        0.96975    0.36010    0.81971    1.000
    N5689    N        0.96547    0.28776    0.79536    1.000
    N5690    N        0.94122    0.31045    0.85927    1.000
    Si5691   Si       0.97182    0.31826    0.82783    1.000
    Si5692   Si       0.93167    0.37853    0.83474    1.000
    Si5693   Si       0.95500    0.43887    0.79970    1.000
    N5694    N        0.96227    0.44802    0.75624    1.000
    N5695    N        0.93944    0.47642    0.81425    1.000
    Si5696   Si       0.95536    0.27659    0.88723    1.000
    N5697    N        0.97565    0.30429    0.97292    1.000
    N5698    N        0.96967    0.34404    0.92034    1.000
    N5699    N        0.95756    0.37749    0.97935    1.000
    Si5700   Si       0.93567    0.29246    0.96032    1.000
    Si5701   Si       0.98267    0.34668    0.96072    1.000
    N5702    N        0.94069    0.37855    0.87750    1.000
    Si5703   Si       0.93384    0.33792    0.89874    1.000
    Si5704   Si       0.98000    0.37956    0.89714    1.000
    Si5705   Si       0.95456    0.41704    0.96026    1.000
    Si5706   Si       0.97793    0.45431    0.90321    1.000
    N5707    N        0.96367    0.48872    0.92535    1.000
    N5708    N        0.94351    0.44669    0.87782    1.000
    N5709    N        0.95429    0.44772    0.98967    1.000
    N5710    N        0.97900    0.41429    0.92334    1.000
    Si5711   Si       0.96987    0.52140    0.01076    1.000
    N5712    N        0.95586    0.62524    0.02993    1.000
    N5713    N        0.97966    0.56213    0.00781    1.000
    N5714    N        0.93263    0.51049    0.08883    1.000
    Si5715   Si       0.95789    0.59847    0.99550    1.000
    N5716    N        0.94398    0.73255    0.10336    1.000
    N5717    N        0.96640    0.67151    0.07248    1.000
    N5718    N        0.96746    0.72513    0.03030    1.000
    Si5719   Si       0.96954    0.71447    0.07235    1.000
    Si5720   Si       0.97404    0.64708    0.10608    1.000
    N5721    N        0.94360    0.62422    0.12657    1.000
    N5722    N        0.97203    0.56162    0.23631    1.000
    Si5723   Si       0.96379    0.60523    0.16037    1.000
    N5724    N        0.97538    0.52228    0.18468    1.000
    Si5725   Si       0.94528    0.54750    0.20354    1.000
    N5726    N        0.93247    0.57716    0.17420    1.000
    Si5727   Si       0.96558    0.65056    0.22882    1.000
    Si5728   Si       0.98239    0.68043    0.17422    1.000
    N5729    N        0.94412    0.70252    0.16642    1.000
    N5730    N        0.98561    0.68887    0.21673    1.000
    Si5731   Si       0.94112    0.73830    0.14634    1.000
    N5732    N        0.97169    0.63641    0.18784    1.000
    Si5733   Si       0.95605    0.58189    0.26941    1.000
    N5734    N        0.97088    0.57048    0.30975    1.000
    N5735    N        0.96516    0.62388    0.26261    1.000
    Si5736   Si       0.95163    0.55486    0.35252    1.000
    N5737    N        0.93714    0.51727    0.33885    1.000
    N5738    N        0.93702    0.71255    0.35161    1.000
    Si5739   Si       0.95434    0.64578    0.29952    1.000
    Si5740   Si       0.96464    0.70919    0.31418    1.000
    N5741    N        0.96333    0.74434    0.28692    1.000
    N5742    N        0.93582    0.68227    0.28613    1.000
    Si5743   Si       0.93581    0.53404    0.45970    1.000
    N5744    N        0.97136    0.51148    0.46010    1.000
    N5745    N        0.93034    0.57180    0.47957    1.000
    N5746    N        0.96405    0.67063    0.49764    1.000
    Si5747   Si       0.96279    0.65748    0.41712    1.000
    N5748    N        0.97785    0.69771    0.40752    1.000
    Si5749   Si       0.96900    0.72759    0.37766    1.000
    N5750    N        0.95539    0.73809    0.48670    1.000
    N5751    N        0.96551    0.63884    0.37801    1.000
    Si5752   Si       0.98526    0.70831    0.49057    1.000
    Si5753   Si       0.95566    0.59331    0.50626    1.000
    N5754    N        0.98189    0.58393    0.60219    1.000
    Si5755   Si       0.97168    0.62489    0.59258    1.000
    N5756    N        0.94246    0.57697    0.54386    1.000
    N5757    N        0.93419    0.52532    0.59209    1.000
    N5758    N        0.95947    0.51514    0.52165    1.000
    Si5759   Si       0.93150    0.53348    0.54876    1.000
    Si5760   Si       0.94887    0.55762    0.61835    1.000
    Si5761   Si       0.95153    0.73962    0.57303    1.000
    N5762    N        0.94099    0.69896    0.56180    1.000
    Si5763   Si       0.97120    0.67439    0.54028    1.000
    N5764    N        0.98248    0.65513    0.62168    1.000
    Si5765   Si       0.95043    0.53903    0.69584    1.000
    N5766    N        0.96880    0.54604    0.65577    1.000
    N5767    N        0.95199    0.61616    0.67498    1.000
    N5768    N        0.97430    0.56738    0.72052    1.000
    Si5769   Si       0.98705    0.59904    0.69323    1.000
    Si5770   Si       0.95501    0.72700    0.68416    1.000
    Si5771   Si       0.95453    0.65679    0.65602    1.000
    N5772    N        0.96783    0.68531    0.68672    1.000
    N5773    N        0.97220    0.75293    0.65385    1.000
    N5774    N        0.96013    0.75561    0.71658    1.000
    Si5775   Si       0.95950    0.57757    0.81607    1.000
    N5776    N        0.94058    0.54194    0.80012    1.000
    N5777    N        0.98625    0.57163    0.85283    1.000
    Si5778   Si       0.96619    0.50713    0.80080    1.000
    N5779    N        0.98562    0.51349    0.76144    1.000
    N5780    N        0.92909    0.60826    0.81932    1.000
    Si5781   Si       0.93798    0.72417    0.81703    1.000
    N5782    N        0.97092    0.67690    0.76190    1.000
    N5783    N        0.97983    0.71633    0.82541    1.000
    Si5784   Si       0.98079    0.58059    0.89491    1.000
    N5785    N        0.96705    0.55032    0.92407    1.000
    N5786    N        0.95216    0.61257    0.89374    1.000
    Si5787   Si       0.93568    0.52087    0.91524    1.000
    N5788    N        0.97882    0.61370    0.96100    1.000
    N5789    N        0.92814    0.51562    0.87444    1.000
    N5790    N        0.97420    0.72901    0.89699    1.000
    N5791    N        0.98648    0.66124    0.92125    1.000
    Si5792   Si       0.93289    0.74059    0.89237    1.000
    Si5793   Si       0.95463    0.63313    0.93161    1.000
    N5794    N        0.97354    0.84723    0.08417    1.000
    N5795    N        0.94239    0.79324    0.02087    1.000
    N5796    N        0.97988    0.85082    0.01535    1.000
    Si5797   Si       0.97362    0.87613    0.05168    1.000
    Si5798   Si       0.98401    0.80714    0.01947    1.000
    Si5799   Si       0.93349    0.84010    0.10249    1.000
    Si5800   Si       0.95047    0.99913    0.01645    1.000
    Si5801   Si       0.94721    0.92467    0.01013    1.000
    N5802    N        0.93626    0.89771    0.04202    1.000
    N5803    N        0.96088    0.98378    0.11437    1.000
    N5804    N        0.93725    0.80702    0.13008    1.000
    Si5805   Si       0.97737    0.80387    0.14894    1.000
    N5806    N        0.97947    0.83698    0.17705    1.000
    Si5807   Si       0.93926    0.85347    0.17637    1.000
    N5808    N        0.97194    0.76178    0.16482    1.000
    N5809    N        0.92730    0.86897    0.13513    1.000
    N5810    N        0.94124    0.93818    0.22833    1.000
    N5811    N        0.97662    0.93912    0.16728    1.000
    Si5812   Si       0.96518    0.91477    0.20054    1.000
    Si5813   Si       0.94445    0.95790    0.14430    1.000
    N5814    N        0.94855    0.86640    0.33663    1.000
    Si5815   Si       0.96819    0.83273    0.31988    1.000
    N5816    N        0.94423    0.80863    0.29303    1.000
    N5817    N        0.98096    0.80416    0.35164    1.000
    N5818    N        0.97224    0.90889    0.28174    1.000
    Si5819   Si       0.96340    0.90350    0.32277    1.000
    Si5820   Si       0.95982    0.94651    0.26555    1.000
    N5821    N        0.94137    0.93236    0.34740    1.000
    Si5822   Si       0.96165    0.99746    0.30398    1.000
    Si5823   Si       0.97931    0.94867    0.36155    1.000
    N5824    N        0.98395    0.98828    0.34235    1.000
    N5825    N        0.92981    0.96570    0.29072    1.000
    Si5826   Si       0.96201    0.80361    0.39032    1.000
    N5827    N        0.95384    0.76239    0.39954    1.000
    N5828    N        0.96191    0.88306    0.40224    1.000
    Si5829   Si       0.92873    0.86601    0.37529    1.000
    N5830    N        0.94090    0.80980    0.49487    1.000
    Si5831   Si       0.96436    0.99188    0.42170    1.000
    N5832    N        0.97271    0.95347    0.40343    1.000
    N5833    N        0.94047    0.99006    0.45796    1.000
    Si5834   Si       0.95059    0.91898    0.42307    1.000
    N5835    N        0.96586    0.91464    0.46420    1.000
    Si5836   Si       0.95878    0.00782    0.49719    1.000
    N5837    N        0.95113    0.84148    0.55772    1.000
    Si5838   Si       0.95056    0.84748    0.51495    1.000
    N5839    N        0.96032    0.77495    0.54739    1.000
    N5840    N        0.97686    0.80370    0.61199    1.000
    Si5841   Si       0.97686    0.80828    0.56882    1.000
    Si5842   Si       0.96649    0.77515    0.50534    1.000
    Si5843   Si       0.94987    0.92528    0.57691    1.000
    N5844    N        0.96062    0.91576    0.53565    1.000
    N5845    N        0.93717    0.89322    0.60460    1.000
    Si5846   Si       0.93986    0.91263    0.49750    1.000
    N5847    N        0.93622    0.00356    0.53272    1.000
    Si5848   Si       0.94156    0.79079    0.63204    1.000
    N5849    N        0.97734    0.81995    0.73182    1.000
    Si5850   Si       0.97106    0.79552    0.69529    1.000
    N5851    N        0.93179    0.80187    0.67480    1.000
    N5852    N        0.96785    0.91175    0.67202    1.000
    N5853    N        0.96709    0.99120    0.68347    1.000
    Si5854   Si       0.93420    0.90192    0.64740    1.000
    Si5855   Si       0.96575    0.94960    0.69534    1.000
    N5856    N        0.95370    0.94523    0.73706    1.000
    N5857    N        0.97907    0.81996    0.79965    1.000
    N5858    N        0.98050    0.78163    0.85470    1.000
    Si5859   Si       0.93867    0.80160    0.80604    1.000
    Si5860   Si       0.94946    0.84811    0.75079    1.000
    N5861    N        0.97513    0.87996    0.77056    1.000
    N5862    N        0.93930    0.75975    0.79143    1.000
    Si5863   Si       0.94623    0.88292    0.87029    1.000
    Si5864   Si       0.98899    0.86166    0.80596    1.000
    N5865    N        0.97949    0.88522    0.84115    1.000
    Si5866   Si       0.94246    0.91024    0.75931    1.000
    N5867    N        0.95610    0.97459    0.80094    1.000
    Si5868   Si       0.96174    0.98231    0.75720    1.000
    N5869    N        0.97830    0.97904    0.87052    1.000
    Si5870   Si       0.95144    0.80502    0.87571    1.000
    N5871    N        0.96115    0.84559    0.89115    1.000
    Si5872   Si       0.94191    0.78747    0.97694    1.000
    Si5873   Si       0.97452    0.87762    0.98346    1.000
    N5874    N        0.98649    0.79463    0.97608    1.000
    N5875    N        0.93127    0.78289    0.90760    1.000
    Si5876   Si       0.94161    0.92692    0.93730    1.000
    N5877    N        0.95705    0.91365    0.89867    1.000
    N5878    N        0.94020    0.90267    0.97174    1.000
    N5879    N        0.97482    0.95564    0.94261    1.000
