# CIF file generated by openbabel 3.1.1, see https://openbabel.org
data_I
_chemical_name_common '3.01-97.aims'
_cell_length_a 39.9659
_cell_length_b 39.9659
_cell_length_c 39.9659
_cell_angle_alpha 90
_cell_angle_beta 90
_cell_angle_gamma 90
loop_
    _atom_site_label
    _atom_site_type_symbol
    _atom_site_fract_x
    _atom_site_fract_y
    _atom_site_fract_z
    _atom_site_occupancy
    N0       N        0.01056    0.06594    0.03443    1.000
    Si1      Si       0.02560    0.06078    0.07434    1.000
    Si2      Si       0.01501    0.03548    0.00232    1.000
    Si3      Si       0.99268    0.10407    0.03248    1.000
    Si4      Si       0.04005    0.12092    0.11631    1.000
    N5       N        0.99060    0.05189    0.10037    1.000
    N6       N        0.01739    0.13990    0.03745    1.000
    Si7      Si       0.03459    0.24324    0.02750    1.000
    Si8      Si       0.01164    0.17251    0.06715    1.000
    N9       N        0.03339    0.15996    0.10508    1.000
    N10      N        0.03250    0.19958    0.03885    1.000
    N11      N        0.01835    0.22358    0.10908    1.000
    Si12     Si       0.04646    0.16306    0.01741    1.000
    N13      N        0.00534    0.24589    0.22999    1.000
    N14      N        0.04409    0.05203    0.14614    1.000
    N15      N        0.03542    0.09572    0.19686    1.000
    N16      N        0.00284    0.10523    0.13279    1.000
    Si17     Si       0.99925    0.09864    0.17489    1.000
    Si18     Si       0.02216    0.09306    0.24006    1.000
    Si19     Si       0.00261    0.04079    0.14205    1.000
    N20      N        0.01071    0.02638    0.32410    1.000
    Si21     Si       0.02734    0.02720    0.28114    1.000
    Si22     Si       0.01851    0.11977    0.35213    1.000
    N23      N        0.02872    0.07944    0.35928    1.000
    N24      N        0.99287    0.12133    0.25254    1.000
    Si25     Si       0.01150    0.03848    0.36770    1.000
    N26      N        0.01327    0.05252    0.24859    1.000
    N27      N        0.02996    0.13068    0.31040    1.000
    Si28     Si       0.00470    0.14958    0.28320    1.000
    N29      N        0.01465    0.18956    0.26883    1.000
    Si30     Si       0.01431    0.23096    0.34867    1.000
    N31      N        0.99833    0.19017    0.34761    1.000
    Si32     Si       0.03591    0.22018    0.24904    1.000
    N33      N        0.03032    0.03229    0.40703    1.000
    N34      N        0.02523    0.05590    0.47508    1.000
    Si35     Si       0.01326    0.06344    0.43289    1.000
    N36      N        0.03305    0.10261    0.43574    1.000
    Si37     Si       0.04729    0.09466    0.47779    1.000
    Si38     Si       0.02506    0.25554    0.49110    1.000
    N39      N        0.99409    0.19986    0.41441    1.000
    N40      N        0.03966    0.14639    0.38121    1.000
    Si41     Si       0.02228    0.18420    0.38583    1.000
    N42      N        0.01540    0.16690    0.47122    1.000
    Si43     Si       0.01661    0.08578    0.54279    1.000
    N44      N        0.99935    0.10736    0.57567    1.000
    N45      N        0.02788    0.11444    0.51258    1.000
    Si46     Si       0.00232    0.03121    0.49868    1.000
    N47      N        0.98518    0.21587    0.65300    1.000
    Si48     Si       0.02962    0.13059    0.59676    1.000
    Si49     Si       0.01849    0.15632    0.51523    1.000
    N50      N        0.00906    0.16865    0.60345    1.000
    Si51     Si       0.99903    0.10792    0.66116    1.000
    N52      N        0.03641    0.11017    0.63648    1.000
    N53      N        0.00941    0.08324    0.69616    1.000
    N54      N        0.03863    0.01205    0.70180    1.000
    Si55     Si       0.03141    0.01052    0.65925    1.000
    Si56     Si       0.04611    0.08425    0.71680    1.000
    N57      N        0.00970    0.24917    0.73623    1.000
    Si58     Si       0.99493    0.16092    0.71661    1.000
    N59      N        0.03760    0.17269    0.72308    1.000
    N60      N        0.99529    0.15036    0.67466    1.000
    Si61     Si       0.01035    0.18139    0.64683    1.000
    N62      N        0.01408    0.00982    0.58655    1.000
    Si63     Si       0.00980    0.03476    0.78852    1.000
    Si64     Si       0.99671    0.10693    0.76680    1.000
    N65      N        0.03946    0.11322    0.75683    1.000
    N66      N        0.03945    0.05979    0.81078    1.000
    N67      N        0.99243    0.06516    0.76197    1.000
    N68      N        0.99143    0.11693    0.80842    1.000
    N69      N        0.04436    0.00951    0.85632    1.000
    N70      N        0.02541    0.13917    0.86258    1.000
    Si71     Si       0.01220    0.15128    0.82377    1.000
    N72      N        0.02090    0.23143    0.81296    1.000
    N73      N        0.04396    0.16812    0.79959    1.000
    N74      N        0.00905    0.11702    0.92762    1.000
    N75      N        0.02894    0.05782    0.96760    1.000
    Si76     Si       0.99701    0.08485    0.95477    1.000
    Si77     Si       0.01749    0.10279    0.88610    1.000
    Si78     Si       0.04394    0.16868    0.88627    1.000
    N79      N        0.04002    0.16440    0.97610    1.000
    N80      N        0.01883    0.18813    0.91538    1.000
    N81      N        0.03692    0.25087    0.88166    1.000
    Si82     Si       0.01604    0.23090    0.91715    1.000
    N83      N        0.02909    0.25504    0.95091    1.000
    Si84     Si       0.00888    0.15641    0.94595    1.000
    N85      N        0.99974    0.31985    0.04306    1.000
    N86      N        0.00267    0.29156    0.10693    1.000
    Si87     Si       0.02342    0.36384    0.11456    1.000
    Si88     Si       0.03414    0.26273    0.09822    1.000
    Si89     Si       0.04105    0.31576    0.05284    1.000
    N90      N        0.04437    0.27307    0.05765    1.000
    N91      N        0.03380    0.48974    0.01617    1.000
    Si92     Si       0.00191    0.47087    0.04041    1.000
    N93      N        0.01817    0.40158    0.09320    1.000
    N94      N        0.99842    0.46917    0.08612    1.000
    Si95     Si       0.02471    0.48488    0.11458    1.000
    Si96     Si       0.99687    0.40518    0.99990    1.000
    N97      N        0.99533    0.42766    0.03588    1.000
    N98      N        0.04583    0.31696    0.16076    1.000
    N99      N        0.02648    0.37539    0.20612    1.000
    Si100    Si       0.00440    0.31293    0.14410    1.000
    N101     N        0.99030    0.28525    0.17330    1.000
    Si102    Si       0.02126    0.27556    0.20320    1.000
    N103     N        0.04519    0.30705    0.22934    1.000
    N104     N        0.99214    0.42031    0.17945    1.000
    Si105    Si       0.03507    0.41046    0.17778    1.000
    N106     N        0.01362    0.48022    0.15821    1.000
    N107     N        0.98479    0.34934    0.12954    1.000
    N108     N        0.99405    0.25622    0.01081    1.000
    Si109    Si       0.02859    0.30373    0.35552    1.000
    Si110    Si       0.02286    0.35672    0.30388    1.000
    N111     N        0.03083    0.26615    0.33378    1.000
    N112     N        0.04268    0.34129    0.33903    1.000
    N113     N        0.00319    0.39590    0.32131    1.000
    Si114    Si       0.02613    0.43287    0.31647    1.000
    N115     N        0.00174    0.45288    0.28759    1.000
    N116     N        0.03982    0.44035    0.36015    1.000
    N117     N        0.02112    0.29331    0.46789    1.000
    N118     N        0.01508    0.35950    0.47000    1.000
    Si119    Si       0.04503    0.33099    0.47419    1.000
    Si120    Si       0.00860    0.39892    0.48780    1.000
    N121     N        0.99879    0.47140    0.41502    1.000
    Si122    Si       0.04566    0.40792    0.38949    1.000
    Si123    Si       0.03798    0.46757    0.39499    1.000
    N124     N        0.00749    0.39523    0.40281    1.000
    N125     N        0.04545    0.50860    0.38287    1.000
    N126     N        0.98720    0.31021    0.35636    1.000
    N127     N        0.02520    0.32765    0.55704    1.000
    N128     N        0.00547    0.28249    0.60735    1.000
    Si129    Si       0.00510    0.36631    0.56112    1.000
    Si130    Si       0.99125    0.30498    0.57290    1.000
    N131     N        0.04313    0.26450    0.53021    1.000
    N132     N        0.00854    0.38783    0.59914    1.000
    N133     N        0.00632    0.46997    0.52398    1.000
    Si134    Si       0.01690    0.49840    0.60384    1.000
    Si135    Si       0.03601    0.42046    0.60534    1.000
    N136     N        0.99293    0.39242    0.52825    1.000
    Si137    Si       0.04172    0.44495    0.52900    1.000
    Si138    Si       0.03058    0.50556    0.52961    1.000
    N139     N        0.01749    0.45771    0.61836    1.000
    Si140    Si       0.03763    0.26783    0.70878    1.000
    N141     N        0.01069    0.27864    0.67501    1.000
    Si142    Si       0.02189    0.30205    0.64101    1.000
    Si143    Si       0.01071    0.33258    0.69901    1.000
    N144     N        0.00740    0.34096    0.65620    1.000
    N145     N        0.02142    0.37118    0.72001    1.000
    Si146    Si       0.99397    0.37895    0.63959    1.000
    Si147    Si       0.04342    0.39672    0.69363    1.000
    Si148    Si       0.04445    0.46496    0.72112    1.000
    N149     N        0.01489    0.40973    0.66282    1.000
    Si150    Si       0.00442    0.45219    0.65901    1.000
    N151     N        0.03080    0.47833    0.68201    1.000
    N152     N        0.00618    0.45912    0.74207    1.000
    Si153    Si       0.02220    0.32085    0.81495    1.000
    Si154    Si       0.00794    0.37172    0.76138    1.000
    N155     N        0.03426    0.33994    0.77598    1.000
    N156     N        0.99757    0.34769    0.83702    1.000
    Si157    Si       0.01474    0.25859    0.77814    1.000
    Si158    Si       0.01423    0.26079    0.84400    1.000
    N159     N        0.99184    0.29071    0.79757    1.000
    N160     N        0.04781    0.28838    0.83390    1.000
    Si161    Si       0.00879    0.38831    0.83134    1.000
    Si162    Si       0.00411    0.44279    0.78297    1.000
    N163     N        0.01240    0.40045    0.78953    1.000
    N164     N        0.01601    0.47029    0.81405    1.000
    N165     N        0.99425    0.41310    0.86481    1.000
    Si166    Si       0.03841    0.41417    0.87859    1.000
    Si167    Si       0.99533    0.27479    0.96847    1.000
    N168     N        0.00711    0.31935    0.97660    1.000
    Si169    Si       0.04304    0.34635    0.98120    1.000
    Si170    Si       0.99127    0.45730    0.87329    1.000
    N171     N        0.04422    0.45119    0.94408    1.000
    Si172    Si       0.00658    0.46674    0.95250    1.000
    N173     N        0.03555    0.38871    0.98436    1.000
    N174     N        0.03726    0.45902    0.87611    1.000
    N175     N        0.02290    0.58880    0.06998    1.000
    Si176    Si       0.00441    0.55825    0.09465    1.000
    Si177    Si       0.99482    0.57821    0.03204    1.000
    N178     N        0.02858    0.55719    0.00728    1.000
    N179     N        0.03230    0.52629    0.10477    1.000
    N180     N        0.99274    0.62039    0.01970    1.000
    Si181    Si       0.00356    0.52079    0.99927    1.000
    Si182    Si       0.03936    0.62852    0.07972    1.000
    N183     N        0.01049    0.65430    0.10179    1.000
    Si184    Si       0.03069    0.64006    0.00738    1.000
    N185     N        0.03763    0.75070    0.01195    1.000
    N186     N        0.01382    0.56927    0.18986    1.000
    Si187    Si       0.02381    0.54446    0.22313    1.000
    Si188    Si       0.04119    0.59829    0.17368    1.000
    N189     N        0.01390    0.62991    0.23626    1.000
    N190     N        0.01838    0.63410    0.16769    1.000
    N191     N        0.99279    0.69673    0.15223    1.000
    N192     N        0.98691    0.53373    0.24299    1.000
    Si193    Si       0.02453    0.66891    0.14202    1.000
    Si194    Si       0.04241    0.73234    0.21395    1.000
    N195     N        0.01900    0.69498    0.21602    1.000
    N196     N        0.02621    0.53012    0.30902    1.000
    Si197    Si       0.02277    0.52849    0.35146    1.000
    Si198    Si       0.01135    0.60369    0.33703    1.000
    N199     N        0.03259    0.57132    0.35858    1.000
    N200     N        0.04182    0.56690    0.25713    1.000
    Si201    Si       0.99041    0.54285    0.28662    1.000
    N202     N        0.02075    0.66470    0.38731    1.000
    N203     N        0.03050    0.67996    0.28190    1.000
    Si204    Si       0.01558    0.70823    0.31325    1.000
    Si205    Si       0.00095    0.67157    0.25045    1.000
    N206     N        0.01610    0.75333    0.31007    1.000
    N207     N        0.00707    0.61993    0.44075    1.000
    N208     N        0.00845    0.54254    0.41999    1.000
    Si209    Si       0.99175    0.58054    0.43677    1.000
    N210     N        0.00428    0.68454    0.45438    1.000
    Si211    Si       0.02487    0.69501    0.48914    1.000
    Si212    Si       0.02185    0.69854    0.41736    1.000
    N213     N        0.99250    0.72463    0.40154    1.000
    N214     N        0.98667    0.58543    0.30327    1.000
    N215     N        0.03100    0.59834    0.52086    1.000
    Si216    Si       0.03481    0.61964    0.61384    1.000
    Si217    Si       0.00469    0.56614    0.51243    1.000
    N218     N        0.03977    0.51631    0.57100    1.000
    N219     N        0.03357    0.53708    0.50192    1.000
    Si220    Si       0.00942    0.63023    0.53917    1.000
    N221     N        0.02524    0.64365    0.57876    1.000
    N222     N        0.01785    0.66866    0.52251    1.000
    Si223    Si       0.01922    0.68475    0.56437    1.000
    Si224    Si       0.03049    0.74502    0.53420    1.000
    N225     N        0.00285    0.72948    0.50579    1.000
    N226     N        0.04556    0.71797    0.56324    1.000
    N227     N        0.00049    0.59946    0.62775    1.000
    Si228    Si       0.03534    0.54528    0.73610    1.000
    N229     N        0.03420    0.52696    0.63242    1.000
    Si230    Si       0.02409    0.52238    0.67440    1.000
    N231     N        0.99754    0.52678    0.72022    1.000
    N232     N        0.02515    0.58685    0.74261    1.000
    N233     N        0.00913    0.65764    0.69604    1.000
    N234     N        0.00855    0.73135    0.69488    1.000
    Si235    Si       0.99933    0.69445    0.71602    1.000
    Si236    Si       0.04169    0.72997    0.66893    1.000
    N237     N        0.02951    0.72474    0.62892    1.000
    N238     N        0.01531    0.54592    0.83373    1.000
    N239     N        0.03673    0.52453    0.77435    1.000
    Si240    Si       0.00850    0.51432    0.80394    1.000
    Si241    Si       0.99350    0.60823    0.76928    1.000
    Si242    Si       0.99645    0.56017    0.87052    1.000
    N243     N        0.02487    0.63670    0.77976    1.000
    N244     N        0.02441    0.68724    0.83048    1.000
    Si245    Si       0.01105    0.67652    0.79062    1.000
    Si246    Si       0.03291    0.74338    0.76018    1.000
    N247     N        0.01656    0.70238    0.75522    1.000
    Si248    Si       0.99438    0.69820    0.86024    1.000
    N249     N        0.00754    0.60019    0.88477    1.000
    N250     N        0.00180    0.52582    0.89497    1.000
    Si251    Si       0.03181    0.52910    0.92534    1.000
    N252     N        0.03856    0.56979    0.93580    1.000
    N253     N        0.00329    0.51020    0.95644    1.000
    Si254    Si       0.98874    0.67902    0.96100    1.000
    N255     N        0.01743    0.72141    0.88805    1.000
    Si256    Si       0.00946    0.73217    0.92821    1.000
    N257     N        0.01753    0.68141    0.99336    1.000
    N258     N        0.00414    0.66330    0.92530    1.000
    N259     N        0.01466    0.84338    0.09560    1.000
    Si260    Si       0.00394    0.77413    0.02281    1.000
    N261     N        0.03043    0.80066    0.04586    1.000
    N262     N        0.04216    0.77552    0.10767    1.000
    N263     N        0.99075    0.86775    0.02723    1.000
    Si264    Si       0.04407    0.81347    0.08397    1.000
    N265     N        0.00840    0.90983    0.07250    1.000
    N266     N        0.00033    0.97535    0.07700    1.000
    Si267    Si       0.04070    0.99060    0.06540    1.000
    N268     N        0.03175    0.00129    0.02379    1.000
    Si269    Si       0.04174    0.92926    0.09507    1.000
    N270     N        0.99652    0.93873    0.01011    1.000
    Si271    Si       0.99759    0.89625    0.99455    1.000
    Si272    Si       0.02645    0.96800    0.99597    1.000
    Si273    Si       0.00653    0.84317    0.13830    1.000
    N274     N        0.03018    0.86124    0.21699    1.000
    Si275    Si       0.02739    0.77516    0.14744    1.000
    N276     N        0.03071    0.81504    0.16148    1.000
    N277     N        0.01843    0.94273    0.12953    1.000
    Si278    Si       0.02734    0.96848    0.16771    1.000
    N279     N        0.01228    0.88346    0.15258    1.000
    Si280    Si       0.00377    0.97177    0.23010    1.000
    N281     N        0.04003    0.98361    0.20755    1.000
    N282     N        0.98690    0.95135    0.18697    1.000
    N283     N        0.99990    0.99901    0.14726    1.000
    Si284    Si       0.04125    0.89430    0.24321    1.000
    N285     N        0.02182    0.93384    0.24578    1.000
    Si286    Si       0.98790    0.94251    0.05067    1.000
    N287     N        0.02147    0.75777    0.24068    1.000
    N288     N        0.99865    0.82758    0.31970    1.000
    Si289    Si       0.03783    0.84096    0.30170    1.000
    N290     N        0.02542    0.87786    0.28176    1.000
    Si291    Si       0.04294    0.76807    0.27865    1.000
    N292     N        0.00637    0.98851    0.27576    1.000
    N293     N        0.03298    0.94557    0.32416    1.000
    Si294    Si       0.99983    0.92573    0.34147    1.000
    Si295    Si       0.03583    0.95328    0.28076    1.000
    Si296    Si       0.99059    0.77071    0.39113    1.000
    Si297    Si       0.02812    0.82311    0.41239    1.000
    N298     N        0.00881    0.82563    0.45114    1.000
    N299     N        0.03253    0.78011    0.40335    1.000
    Si300    Si       0.00214    0.84434    0.48829    1.000
    N301     N        0.99127    0.82934    0.38838    1.000
    N302     N        0.99156    0.88539    0.48253    1.000
    N303     N        0.01270    0.88624    0.37128    1.000
    Si304    Si       0.02438    0.91255    0.47352    1.000
    N305     N        0.02890    0.92629    0.43169    1.000
    Si306    Si       0.99716    0.91044    0.40513    1.000
    N307     N        0.01530    0.94941    0.49588    1.000
    N308     N        0.00932    0.78176    0.55200    1.000
    N309     N        0.03335    0.83870    0.51554    1.000
    Si310    Si       0.99379    0.79582    0.59159    1.000
    N311     N        0.99062    0.95834    0.70738    1.000
    N312     N        0.02178    0.81025    0.61983    1.000
    N313     N        0.00455    0.88240    0.58556    1.000
    Si314    Si       0.00919    0.98311    0.55330    1.000
    N315     N        0.01951    0.94746    0.57644    1.000
    Si316    Si       0.03926    0.90890    0.57623    1.000
    Si317    Si       0.00437    0.96826    0.61550    1.000
    N318     N        0.03131    0.00526    0.52225    1.000
    Si319    Si       0.01000    0.92699    0.68362    1.000
    N320     N        0.99813    0.92908    0.64260    1.000
    Si321    Si       0.00979    0.82494    0.65813    1.000
    N322     N        0.02321    0.77636    0.73485    1.000
    N323     N        0.03489    0.82673    0.69292    1.000
    Si324    Si       0.03592    0.86298    0.71626    1.000
    N325     N        0.99284    0.99765    0.64965    1.000
    Si326    Si       0.00409    0.99705    0.72269    1.000
    N327     N        0.00335    0.89175    0.70943    1.000
    N328     N        0.00404    0.84510    0.81476    1.000
    N329     N        0.02240    0.78766    0.85275    1.000
    N330     N        0.03505    0.86514    0.76150    1.000
    N331     N        0.01171    0.75624    0.79533    1.000
    Si332    Si       0.99006    0.81446    0.84182    1.000
    N333     N        0.01758    0.93609    0.79527    1.000
    Si334    Si       0.00630    0.93690    0.83869    1.000
    Si335    Si       0.01661    0.90591    0.76365    1.000
    N336     N        0.02051    0.99839    0.76456    1.000
    Si337    Si       0.00334    0.00096    0.86092    1.000
    Si338    Si       0.98803    0.87895    0.88512    1.000
    N339     N        0.99669    0.80160    0.98803    1.000
    Si340    Si       0.02693    0.79837    0.95518    1.000
    Si341    Si       0.04122    0.86908    0.93849    1.000
    N342     N        0.01606    0.83424    0.93721    1.000
    N343     N        0.00685    0.77444    0.92317    1.000
    N344     N        0.03575    0.89078    0.97397    1.000
    N345     N        0.02485    0.89041    0.90278    1.000
    N346     N        0.01341    0.98704    0.96054    1.000
    Si347    Si       0.03570    0.99325    0.92567    1.000
    Si348    Si       0.04555    0.77279    0.81723    1.000
    Si349    Si       0.04499    0.84733    0.79933    1.000
    N350     N        0.04501    0.94120    0.85626    1.000
    N351     N        0.99809    0.00546    0.90423    1.000
    Si352    Si       0.04076    0.75877    0.88013    1.000
    N353     N        0.08752    0.09403    0.01284    1.000
    Si354    Si       0.08156    0.10892    0.05293    1.000
    N355     N        0.04903    0.02548    0.08565    1.000
    N356     N        0.05115    0.09253    0.08276    1.000
    N357     N        0.08012    0.15122    0.04604    1.000
    N358     N        0.08258    0.20918    0.09184    1.000
    N359     N        0.07457    0.24191    0.00760    1.000
    Si360    Si       0.10235    0.18215    0.06558    1.000
    Si361    Si       0.07150    0.02736    0.12321    1.000
    N362     N        0.09901    0.07284    0.18933    1.000
    Si363    Si       0.06370    0.08266    0.16876    1.000
    N364     N        0.07061    0.11689    0.14524    1.000
    Si365    Si       0.09292    0.09734    0.22571    1.000
    Si366    Si       0.05226    0.19588    0.12014    1.000
    Si367    Si       0.08040    0.21693    0.18902    1.000
    N368     N        0.09799    0.13850    0.21093    1.000
    Si369    Si       0.08762    0.14985    0.16793    1.000
    N370     N        0.06937    0.19959    0.22747    1.000
    N371     N        0.06729    0.18738    0.15964    1.000
    Si372    Si       0.09258    0.16884    0.24327    1.000
    N373     N        0.05583    0.25494    0.18405    1.000
    Si374    Si       0.10611    0.24475    0.10298    1.000
    N375     N        0.08445    0.08871    0.31958    1.000
    N376     N        0.06897    0.02857    0.28439    1.000
    Si377    Si       0.07260    0.07779    0.35855    1.000
    Si378    Si       0.06871    0.12065    0.29530    1.000
    N379     N        0.05924    0.10406    0.25528    1.000
    N380     N        0.08160    0.03498    0.36418    1.000
    Si381    Si       0.09743    0.05976    0.29124    1.000
    N382     N        0.08881    0.15717    0.28389    1.000
    N383     N        0.05836    0.24997    0.27123    1.000
    N384     N        0.09570    0.23884    0.33016    1.000
    N385     N        0.08773    0.10006    0.39276    1.000
    N386     N        0.09052    0.09711    0.47846    1.000
    Si387    Si       0.07099    0.01931    0.40278    1.000
    Si388    Si       0.06088    0.12803    0.41438    1.000
    Si389    Si       0.10083    0.00944    0.46783    1.000
    N390     N        0.04874    0.21714    0.37594    1.000
    Si391    Si       0.08899    0.22958    0.37182    1.000
    Si392    Si       0.09203    0.23717    0.47987    1.000
    N393     N        0.07622    0.15230    0.44657    1.000
    N394     N        0.05191    0.22356    0.47146    1.000
    Si395    Si       0.05671    0.18085    0.47300    1.000
    N396     N        0.10157    0.25866    0.40278    1.000
    Si397    Si       0.08625    0.09718    0.57373    1.000
    Si398    Si       0.06392    0.03237    0.53718    1.000
    N399     N        0.09513    0.03528    0.50486    1.000
    N400     N        0.05495    0.07008    0.55597    1.000
    N401     N        0.10285    0.08868    0.61593    1.000
    Si402    Si       0.05369    0.01609    0.60268    1.000
    N403     N        0.08179    0.01209    0.57098    1.000
    N404     N        0.10150    0.23830    0.52226    1.000
    N405     N        0.06776    0.13701    0.57619    1.000
    Si406    Si       0.07950    0.17343    0.55648    1.000
    N407     N        0.07231    0.21047    0.57878    1.000
    Si408    Si       0.07437    0.24536    0.55394    1.000
    N409     N        0.06104    0.17510    0.51813    1.000
    N410     N        0.07851    0.08739    0.68820    1.000
    Si411    Si       0.07324    0.01898    0.72730    1.000
    Si412    Si       0.07024    0.08350    0.64559    1.000
    N413     N        0.05607    0.04159    0.63913    1.000
    N414     N        0.06634    0.05824    0.74574    1.000
    N415     N        0.06917    0.24020    0.70088    1.000
    N416     N        0.05295    0.19188    0.65179    1.000
    Si417    Si       0.06462    0.19528    0.69501    1.000
    N418     N        0.08952    0.24942    0.63809    1.000
    N419     N        0.10451    0.18241    0.69469    1.000
    Si420    Si       0.07971    0.20885    0.62275    1.000
    Si421    Si       0.06168    0.08236    0.77999    1.000
    Si422    Si       0.06047    0.05132    0.84669    1.000
    N423     N        0.09692    0.09981    0.79550    1.000
    N424     N        0.10135    0.04120    0.83916    1.000
    Si425    Si       0.05581    0.15343    0.76008    1.000
    Si426    Si       0.05706    0.20538    0.82167    1.000
    N427     N        0.08829    0.22942    0.80585    1.000
    N428     N        0.07324    0.19105    0.86290    1.000
    N429     N        0.09876    0.15299    0.75913    1.000
    N430     N        0.05739    0.08468    0.87918    1.000
    Si431    Si       0.08641    0.10939    0.90249    1.000
    N432     N        0.06879    0.02074    0.92367    1.000
    Si433    Si       0.07064    0.05240    0.95268    1.000
    N434     N        0.08933    0.09088    0.94183    1.000
    N435     N        0.09938    0.03548    0.98150    1.000
    N436     N        0.07212    0.14949    0.91578    1.000
    Si437    Si       0.07016    0.24619    0.96210    1.000
    N438     N        0.08116    0.21345    0.93736    1.000
    Si439    Si       0.09080    0.21957    0.89469    1.000
    Si440    Si       0.07919    0.17019    0.95185    1.000
    N441     N        0.06150    0.33313    0.01797    1.000
    Si442    Si       0.08932    0.35400    0.09534    1.000
    N443     N        0.04843    0.34018    0.08858    1.000
    Si444    Si       0.10216    0.34513    0.02750    1.000
    N445     N        0.08769    0.39487    0.08472    1.000
    Si446    Si       0.07876    0.48818    0.01444    1.000
    N447     N        0.09222    0.44941    0.02789    1.000
    Si448    Si       0.05767    0.41368    0.10882    1.000
    N449     N        0.05921    0.45635    0.11171    1.000
    N450     N        0.07384    0.26778    0.11634    1.000
    Si451    Si       0.07371    0.28278    0.15608    1.000
    N452     N        0.09122    0.35177    0.20317    1.000
    Si453    Si       0.07185    0.35342    0.16396    1.000
    Si454    Si       0.05257    0.35038    0.22876    1.000
    Si455    Si       0.10275    0.43575    0.20677    1.000
    Si456    Si       0.09739    0.47320    0.12493    1.000
    Si457    Si       0.05505    0.48265    0.17868    1.000
    N458     N        0.10036    0.40644    0.23949    1.000
    N459     N        0.06318    0.44154    0.18867    1.000
    N460     N        0.08257    0.50331    0.15232    1.000
    N461     N        0.04969    0.38701    0.14468    1.000
    N462     N        0.08082    0.30184    0.29694    1.000
    Si463    Si       0.07491    0.28781    0.25493    1.000
    N464     N        0.05349    0.36456    0.26998    1.000
    Si465    Si       0.06614    0.26408    0.31150    1.000
    Si466    Si       0.08699    0.39346    0.27814    1.000
    N467     N        0.06600    0.42301    0.30076    1.000
    N468     N        0.08616    0.49117    0.33156    1.000
    Si469    Si       0.08997    0.44962    0.32414    1.000
    Si470    Si       0.07227    0.34235    0.37029    1.000
    Si471    Si       0.07974    0.29030    0.42424    1.000
    N472     N        0.07951    0.33298    0.44781    1.000
    N473     N        0.07513    0.37684    0.39412    1.000
    Si474    Si       0.09861    0.36775    0.43001    1.000
    N475     N        0.05641    0.30672    0.39123    1.000
    N476     N        0.09535    0.27668    0.46343    1.000
    Si477    Si       0.10774    0.31441    0.48075    1.000
    Si478    Si       0.07331    0.43403    0.45978    1.000
    N479     N        0.10530    0.40111    0.45749    1.000
    N480     N        0.05766    0.43834    0.42182    1.000
    N481     N        0.04598    0.42114    0.49084    1.000
    N482     N        0.08244    0.28294    0.57258    1.000
    N483     N        0.07374    0.32363    0.50755    1.000
    Si484    Si       0.08944    0.28638    0.61443    1.000
    Si485    Si       0.05874    0.30452    0.54345    1.000
    N486     N        0.06971    0.48125    0.52787    1.000
    Si487    Si       0.09266    0.42496    0.58364    1.000
    Si488    Si       0.09191    0.50288    0.56369    1.000
    N489     N        0.05235    0.42454    0.56448    1.000
    N490     N        0.07722    0.37030    0.67913    1.000
    N491     N        0.06478    0.31105    0.64119    1.000
    Si492    Si       0.07862    0.32659    0.68013    1.000
    Si493    Si       0.10118    0.25911    0.67986    1.000
    N494     N        0.07854    0.41224    0.62315    1.000
    N495     N        0.04838    0.31199    0.71105    1.000
    Si496    Si       0.10351    0.39442    0.65365    1.000
    N497     N        0.06611    0.42931    0.71108    1.000
    Si498    Si       0.07690    0.27010    0.80593    1.000
    N499     N        0.05591    0.27785    0.76931    1.000
    Si500    Si       0.06448    0.31861    0.75247    1.000
    N501     N        0.10602    0.33359    0.74586    1.000
    Si502    Si       0.05558    0.40977    0.95203    1.000
    N503     N        0.10507    0.48632    0.97748    1.000
    Si504    Si       0.08454    0.40110    0.81533    1.000
    N505     N        0.08939    0.44207    0.83118    1.000
    N506     N        0.09317    0.40490    0.77187    1.000
    Si507    Si       0.05365    0.46806    0.83678    1.000
    N508     N        0.05067    0.39498    0.84188    1.000
    N509     N        0.07224    0.50527    0.82618    1.000
    N510     N        0.07466    0.47492    0.75115    1.000
    N511     N        0.10120    0.26255    0.88902    1.000
    Si512    Si       0.06531    0.28562    0.87665    1.000
    N513     N        0.07825    0.32667    0.87866    1.000
    Si514    Si       0.07942    0.35619    0.91063    1.000
    N515     N        0.07294    0.33979    0.94967    1.000
    N516     N        0.09888    0.27622    0.95601    1.000
    N517     N        0.10260    0.44959    0.89668    1.000
    Si518    Si       0.06480    0.46825    0.90904    1.000
    N519     N        0.05225    0.39129    0.91216    1.000
    N520     N        0.09954    0.41766    0.95729    1.000
    Si521    Si       0.09645    0.43803    0.74242    1.000
    N522     N        0.09770    0.55444    0.10038    1.000
    N523     N        0.09778    0.52301    0.03231    1.000
    N524     N        0.07719    0.63038    0.10086    1.000
    Si525    Si       0.08107    0.68141    0.04544    1.000
    N526     N        0.06755    0.70924    0.07528    1.000
    N527     N        0.08629    0.70176    0.00768    1.000
    Si528    Si       0.07092    0.74914    0.09241    1.000
    N529     N        0.05240    0.64834    0.04386    1.000
    Si530    Si       0.06785    0.53832    0.12805    1.000
    N531     N        0.07010    0.60596    0.20744    1.000
    N532     N        0.06281    0.57687    0.14439    1.000
    Si533    Si       0.09317    0.51317    0.22601    1.000
    N534     N        0.05282    0.51349    0.21057    1.000
    Si535    Si       0.04883    0.60704    0.24499    1.000
    Si536    Si       0.10180    0.59516    0.12793    1.000
    N537     N        0.09606    0.74951    0.12698    1.000
    N538     N        0.04757    0.74790    0.17500    1.000
    Si539    Si       0.09455    0.66136    0.12769    1.000
    N540     N        0.06286    0.68823    0.14140    1.000
    Si541    Si       0.08084    0.72403    0.15901    1.000
    N542     N        0.08265    0.72907    0.22884    1.000
    N543     N        0.10354    0.62977    0.15659    1.000
    Si544    Si       0.04617    0.71370    0.99079    1.000
    N545     N        0.08754    0.56165    0.32087    1.000
    Si546    Si       0.06109    0.54639    0.29047    1.000
    Si547    Si       0.07658    0.58373    0.35889    1.000
    N548     N        0.08703    0.51811    0.26712    1.000
    N549     N        0.07348    0.62559    0.27420    1.000
    Si550    Si       0.07710    0.73046    0.33324    1.000
    Si551    Si       0.06026    0.65924    0.30388    1.000
    N552     N        0.10329    0.67104    0.30111    1.000
    N553     N        0.07515    0.74619    0.29318    1.000
    N554     N        0.05280    0.69478    0.33863    1.000
    Si555    Si       0.05856    0.65811    0.36770    1.000
    Si556    Si       0.08849    0.50976    0.36984    1.000
    Si557    Si       0.05371    0.54267    0.41496    1.000
    N558     N        0.07467    0.51592    0.44564    1.000
    Si559    Si       0.06733    0.54628    0.47580    1.000
    N560     N        0.08995    0.55086    0.38849    1.000
    N561     N        0.07012    0.61800    0.39775    1.000
    N562     N        0.05522    0.57547    0.44650    1.000
    Si563    Si       0.05191    0.61581    0.43709    1.000
    N564     N        0.06777    0.70637    0.48643    1.000
    N565     N        0.10267    0.66680    0.37195    1.000
    Si566    Si       0.09041    0.67117    0.47635    1.000
    Si567    Si       0.10226    0.69515    0.40771    1.000
    Si568    Si       0.08774    0.74675    0.48655    1.000
    N569     N        0.06713    0.63603    0.47281    1.000
    N570     N        0.06227    0.71205    0.41019    1.000
    Si571    Si       0.06980    0.75615    0.40827    1.000
    N572     N        0.04576    0.63148    0.33448    1.000
    N573     N        0.05926    0.58683    0.59363    1.000
    Si574    Si       0.09236    0.60410    0.57402    1.000
    Si575    Si       0.05706    0.54487    0.60024    1.000
    N576     N        0.09753    0.52935    0.59601    1.000
    Si577    Si       0.07054    0.60934    0.50688    1.000
    N578     N        0.09415    0.57036    0.50183    1.000
    N579     N        0.08842    0.63103    0.53880    1.000
    Si580    Si       0.06608    0.72571    0.60210    1.000
    N581     N        0.09651    0.69472    0.61299    1.000
    N582     N        0.05730    0.54158    0.69841    1.000
    Si583    Si       0.09861    0.54379    0.70942    1.000
    N584     N        0.07266    0.63112    0.71379    1.000
    N585     N        0.06651    0.69570    0.68436    1.000
    Si586    Si       0.05124    0.65577    0.68380    1.000
    Si587    Si       0.10067    0.72313    0.69700    1.000
    N588     N        0.05900    0.63964    0.64446    1.000
    Si589    Si       0.09732    0.65579    0.63261    1.000
    N590     N        0.08771    0.61399    0.77588    1.000
    Si591    Si       0.05898    0.54410    0.83933    1.000
    N592     N        0.08973    0.54795    0.75273    1.000
    Si593    Si       0.05268    0.61871    0.75154    1.000
    N594     N        0.10094    0.55992    0.82060    1.000
    Si595    Si       0.08025    0.50972    0.77840    1.000
    Si596    Si       0.07915    0.75389    0.94174    1.000
    N597     N        0.06692    0.57358    0.87113    1.000
    N598     N        0.10095    0.63165    0.84421    1.000
    Si599    Si       0.06465    0.69895    0.83507    1.000
    N600     N        0.08294    0.68328    0.79824    1.000
    N601     N        0.06361    0.74235    0.84181    1.000
    N602     N        0.07623    0.74979    0.77372    1.000
    Si603    Si       0.10019    0.64521    0.80373    1.000
    Si604    Si       0.10303    0.71627    0.77532    1.000
    Si605    Si       0.10261    0.73787    0.87027    1.000
    N606     N        0.08997    0.69416    0.87184    1.000
    Si607    Si       0.05193    0.57489    0.97470    1.000
    N608     N        0.05771    0.61966    0.97823    1.000
    N609     N        0.08706    0.55237    0.97102    1.000
    Si610    Si       0.10023    0.51828    0.94641    1.000
    Si611    Si       0.09143    0.63025    0.95320    1.000
    N612     N        0.06921    0.51009    0.91725    1.000
    N613     N        0.07721    0.62802    0.91094    1.000
    Si614    Si       0.04832    0.59615    0.90282    1.000
    Si615    Si       0.10084    0.65408    0.88253    1.000
    Si616    Si       0.10835    0.57670    0.77953    1.000
    N617     N        0.04619    0.72656    0.94929    1.000
    N618     N        0.08327    0.83740    0.08688    1.000
    Si619    Si       0.06476    0.78531    0.02416    1.000
    Si620    Si       0.09669    0.85113    0.04673    1.000
    N621     N        0.08812    0.82199    0.01496    1.000
    N622     N        0.08859    0.76833    0.05708    1.000
    N623     N        0.08493    0.89148    0.03155    1.000
    N624     N        0.06394    0.95391    0.06795    1.000
    N625     N        0.07357    0.90545    0.11269    1.000
    Si626    Si       0.09611    0.93236    0.04621    1.000
    N627     N        0.06173    0.94576    0.99967    1.000
    N628     N        0.07254    0.98761    0.14043    1.000
    Si629    Si       0.09548    0.84463    0.12798    1.000
    N630     N        0.07358    0.86423    0.15989    1.000
    N631     N        0.09129    0.82292    0.21254    1.000
    Si632    Si       0.05589    0.83831    0.18976    1.000
    Si633    Si       0.09800    0.95890    0.16235    1.000
    Si634    Si       0.07098    0.95130    0.21945    1.000
    Si635    Si       0.05151    0.90130    0.15058    1.000
    N636     N        0.06124    0.93449    0.17836    1.000
    N637     N        0.08132    0.90627    0.23430    1.000
    N638     N        0.06618    0.85481    0.32987    1.000
    Si639    Si       0.08969    0.81686    0.25488    1.000
    N640     N        0.05129    0.80991    0.27432    1.000
    Si641    Si       0.05402    0.87377    0.36616    1.000
    N642     N        0.08063    0.75893    0.36585    1.000
    N643     N        0.10150    0.85315    0.27147    1.000
    N644     N        0.07463    0.96428    0.26463    1.000
    Si645    Si       0.06599    0.95333    0.35147    1.000
    Si646    Si       0.09733    0.99576    0.28552    1.000
    N647     N        0.09974    0.97442    0.32625    1.000
    N648     N        0.07228    0.91447    0.36614    1.000
    N649     N        0.06101    0.84837    0.40123    1.000
    N650     N        0.09438    0.75950    0.44502    1.000
    Si651    Si       0.10225    0.84485    0.41094    1.000
    N652     N        0.06630    0.98286    0.45778    1.000
    N653     N        0.06648    0.97530    0.38923    1.000
    N654     N        0.09851    0.92512    0.42898    1.000
    Si655    Si       0.06368    0.95174    0.42736    1.000
    N656     N        0.06283    0.89206    0.48100    1.000
    Si657    Si       0.10151    0.90087    0.46344    1.000
    N658     N        0.07020    0.81501    0.56914    1.000
    Si659    Si       0.06606    0.86626    0.51426    1.000
    Si660    Si       0.06532    0.80723    0.60963    1.000
    N661     N        0.05989    0.76838    0.51357    1.000
    N662     N        0.10435    0.84474    0.51459    1.000
    Si663    Si       0.09544    0.87437    0.61737    1.000
    N664     N        0.07973    0.76705    0.61713    1.000
    N665     N        0.06858    0.89935    0.54405    1.000
    N666     N        0.08512    0.96713    0.52064    1.000
    Si667    Si       0.09939    0.92748    0.53286    1.000
    N668     N        0.06575    0.90447    0.61191    1.000
    Si669    Si       0.05067    0.97383    0.49698    1.000
    N670     N        0.07806    0.87469    0.71011    1.000
    Si671    Si       0.05455    0.79200    0.70984    1.000
    N672     N        0.08507    0.80800    0.73447    1.000
    N673     N        0.08335    0.83614    0.63572    1.000
    Si674    Si       0.07816    0.91932    0.71328    1.000
    Si675    Si       0.06825    0.94006    0.63992    1.000
    N676     N        0.05392    0.92948    0.67859    1.000
    N677     N        0.05019    0.97986    0.63049    1.000
    Si678    Si       0.10543    0.84638    0.72739    1.000
    Si679    Si       0.04469    0.80357    0.53694    1.000
    N680     N        0.06998    0.75764    0.68899    1.000
    N681     N        0.06323    0.80831    0.79776    1.000
    Si682    Si       0.09465    0.78994    0.77348    1.000
    Si683    Si       0.09690    0.87312    0.85536    1.000
    N684     N        0.07403    0.87481    0.81739    1.000
    N685     N        0.09284    0.89887    0.89225    1.000
    Si686    Si       0.05570    0.92159    0.89281    1.000
    Si687    Si       0.07064    0.97474    0.84760    1.000
    N688     N        0.07608    0.97059    0.80688    1.000
    N689     N        0.08259    0.98406    0.74818    1.000
    N690     N        0.04795    0.93118    0.74358    1.000
    Si691    Si       0.09286    0.98555    0.91229    1.000
    Si692    Si       0.04679    0.96489    0.77261    1.000
    N693     N        0.09057    0.83501    0.87008    1.000
    Si694    Si       0.09428    0.82405    0.97181    1.000
    N695     N        0.08122    0.85460    0.94439    1.000
    N696     N        0.06813    0.79027    0.96241    1.000
    N697     N        0.07929    0.76453    0.89978    1.000
    N698     N        0.05871    0.95858    0.91711    1.000
    N699     N        0.10263    0.91182    0.96441    1.000
    N700     N        0.10537    0.97530    0.87186    1.000
    Si701    Si       0.07233    0.90434    0.99205    1.000
    Si702    Si       0.12931    0.05579    0.08507    1.000
    N703     N        0.12374    0.03573    0.04550    1.000
    N704     N        0.11985    0.09510    0.07189    1.000
    Si705    Si       0.11635    0.06218    0.01059    1.000
    Si706    Si       0.14580    0.12971    0.07302    1.000
    N707     N        0.13088    0.16416    0.09360    1.000
    N708     N        0.12360    0.20344    0.03387    1.000
    Si709    Si       0.11471    0.24465    0.02648    1.000
    Si710    Si       0.13687    0.17273    0.00663    1.000
    N711     N        0.15570    0.14186    0.03268    1.000
    N712     N        0.12605    0.22788    0.19666    1.000
    N713     N        0.15177    0.25821    0.00753    1.000
    Si714    Si       0.13032    0.06002    0.16076    1.000
    N715     N        0.14475    0.02668    0.18318    1.000
    N716     N        0.10887    0.04970    0.12300    1.000
    N717     N        0.16012    0.11073    0.21694    1.000
    Si718    Si       0.14474    0.18407    0.13178    1.000
    Si719    Si       0.14109    0.25221    0.16480    1.000
    N720     N        0.13556    0.22672    0.12919    1.000
    Si721    Si       0.14297    0.15032    0.20544    1.000
    N722     N        0.12834    0.16164    0.16363    1.000
    Si723    Si       0.14573    0.21773    0.23432    1.000
    N724     N        0.13555    0.17651    0.24555    1.000
    N725     N        0.12500    0.03357    0.31129    1.000
    N726     N        0.11610    0.07867    0.25795    1.000
    Si727    Si       0.15637    0.09242    0.25562    1.000
    Si728    Si       0.11238    0.01077    0.34754    1.000
    Si729    Si       0.15830    0.02365    0.28655    1.000
    N730     N        0.15751    0.12284    0.28767    1.000
    N731     N        0.14607    0.01026    0.37295    1.000
    Si732    Si       0.13276    0.15970    0.28836    1.000
    N733     N        0.13767    0.24002    0.26990    1.000
    Si734    Si       0.13387    0.22964    0.31151    1.000
    N735     N        0.14397    0.18699    0.31900    1.000
    Si736    Si       0.14438    0.17533    0.36154    1.000
    N737     N        0.13872    0.13328    0.36493    1.000
    N738     N        0.13288    0.15618    0.49168    1.000
    N739     N        0.10768    0.02788    0.42695    1.000
    Si740    Si       0.13167    0.10532    0.39457    1.000
    Si741    Si       0.14737    0.03395    0.40989    1.000
    N742     N        0.14070    0.12209    0.43356    1.000
    N743     N        0.16045    0.07307    0.39215    1.000
    Si744    Si       0.11163    0.13210    0.46361    1.000
    Si745    Si       0.12993    0.22918    0.41598    1.000
    N746     N        0.12088    0.21597    0.45661    1.000
    N747     N        0.11812    0.20068    0.38434    1.000
    Si748    Si       0.15154    0.19245    0.47735    1.000
    Si749    Si       0.15849    0.02035    0.50453    1.000
    Si750    Si       0.11610    0.07242    0.50605    1.000
    N751     N        0.11545    0.10015    0.53949    1.000
    N752     N        0.15711    0.06313    0.49798    1.000
    N753     N        0.14801    0.01127    0.54603    1.000
    Si754    Si       0.13673    0.13683    0.53008    1.000
    Si755    Si       0.14256    0.24103    0.53548    1.000
    Si756    Si       0.14168    0.18613    0.59007    1.000
    N757     N        0.12275    0.16651    0.55648    1.000
    N758     N        0.15187    0.22511    0.57776    1.000
    Si759    Si       0.14454    0.08041    0.63379    1.000
    Si760    Si       0.11552    0.07349    0.70641    1.000
    N761     N        0.14410    0.08937    0.67683    1.000
    N762     N        0.13283    0.09676    0.73646    1.000
    N763     N        0.11448    0.03144    0.71197    1.000
    N764     N        0.16210    0.15749    0.72276    1.000
    Si765    Si       0.12315    0.17478    0.73264    1.000
    Si766    Si       0.15489    0.23690    0.73028    1.000
    Si767    Si       0.13641    0.19771    0.66570    1.000
    N768     N        0.11921    0.19000    0.62631    1.000
    N769     N        0.13622    0.23639    0.69050    1.000
    Si770    Si       0.14402    0.03491    0.83690    1.000
    Si771    Si       0.12689    0.12000    0.77273    1.000
    N772     N        0.15660    0.06551    0.86851    1.000
    N773     N        0.16480    0.13270    0.79095    1.000
    N774     N        0.13402    0.20912    0.75741    1.000
    N775     N        0.12989    0.17432    0.82716    1.000
    Si776    Si       0.12606    0.21039    0.80069    1.000
    Si777    Si       0.11138    0.16769    0.86587    1.000
    N778     N        0.15380    0.24440    0.81207    1.000
    N779     N        0.11828    0.12583    0.87703    1.000
    N780     N        0.14377    0.08503    0.98271    1.000
    Si781    Si       0.13356    0.01772    0.96045    1.000
    Si782    Si       0.15834    0.10607    0.87844    1.000
    N783     N        0.15793    0.04060    0.93172    1.000
    Si784    Si       0.10785    0.11326    0.97512    1.000
    N785     N        0.16358    0.25006    0.93052    1.000
    N786     N        0.11157    0.15619    0.97624    1.000
    N787     N        0.12968    0.19899    0.89025    1.000
    Si788    Si       0.14207    0.30145    0.07714    1.000
    N789     N        0.11285    0.33160    0.06751    1.000
    N790     N        0.12122    0.26352    0.06723    1.000
    N791     N        0.12870    0.32683    0.99921    1.000
    N792     N        0.11150    0.47697    0.21143    1.000
    Si793    Si       0.16332    0.30147    0.00678    1.000
    Si794    Si       0.10769    0.41906    0.05336    1.000
    N795     N        0.11198    0.38508    0.02278    1.000
    Si796    Si       0.15044    0.38611    0.00469    1.000
    N797     N        0.11822    0.49188    0.09311    1.000
    Si798    Si       0.15000    0.46369    0.09575    1.000
    N799     N        0.14753    0.43175    0.06699    1.000
    N800     N        0.11426    0.28673    0.16940    1.000
    Si801    Si       0.14300    0.34038    0.14557    1.000
    Si802    Si       0.11574    0.31537    0.20175    1.000
    N803     N        0.15029    0.34055    0.18746    1.000
    N804     N        0.11271    0.29536    0.23869    1.000
    Si805    Si       0.12650    0.37895    0.21700    1.000
    N806     N        0.10325    0.34804    0.13402    1.000
    N807     N        0.13060    0.44351    0.12926    1.000
    N808     N        0.13310    0.41076    0.18792    1.000
    Si809    Si       0.14869    0.49733    0.20212    1.000
    Si810    Si       0.15609    0.41503    0.14998    1.000
    N811     N        0.15958    0.36971    0.24445    1.000
    Si812    Si       0.14857    0.28369    0.26141    1.000
    N813     N        0.14815    0.30318    0.30016    1.000
    Si814    Si       0.11325    0.32744    0.30875    1.000
    N815     N        0.11510    0.37002    0.30099    1.000
    N816     N        0.10959    0.32844    0.35356    1.000
    N817     N        0.15990    0.36974    0.35938    1.000
    Si818    Si       0.16495    0.38252    0.40198    1.000
    N819     N        0.12223    0.46210    0.29473    1.000
    Si820    Si       0.13706    0.39256    0.33130    1.000
    N821     N        0.11655    0.42699    0.35068    1.000
    Si822    Si       0.11237    0.50270    0.29740    1.000
    Si823    Si       0.14591    0.33108    0.37632    1.000
    N824     N        0.13558    0.35220    0.41487    1.000
    N825     N        0.14767    0.32000    0.49023    1.000
    N826     N        0.11072    0.48079    0.39657    1.000
    Si827    Si       0.11031    0.49365    0.43717    1.000
    N828     N        0.16394    0.42706    0.40586    1.000
    N829     N        0.10661    0.46319    0.46779    1.000
    Si830    Si       0.13350    0.42767    0.47522    1.000
    Si831    Si       0.13860    0.45142    0.37864    1.000
    N832     N        0.16343    0.47499    0.35214    1.000
    Si833    Si       0.14845    0.37420    0.59348    1.000
    N834     N        0.13210    0.30042    0.61382    1.000
    Si835    Si       0.16097    0.29953    0.58043    1.000
    N836     N        0.15932    0.27898    0.54248    1.000
    Si837    Si       0.15696    0.42562    0.54866    1.000
    N838     N        0.12672    0.40142    0.57122    1.000
    N839     N        0.13484    0.44123    0.51613    1.000
    Si840    Si       0.11017    0.47741    0.51063    1.000
    N841     N        0.10584    0.46517    0.58021    1.000
    N842     N        0.11861    0.30518    0.68288    1.000
    Si843    Si       0.13934    0.32584    0.64860    1.000
    N844     N        0.13186    0.36645    0.63373    1.000
    Si845    Si       0.13792    0.31035    0.72250    1.000
    N846     N        0.13760    0.41503    0.67255    1.000
    N847     N        0.16629    0.34048    0.57161    1.000
    N848     N        0.14537    0.33111    0.85937    1.000
    Si849    Si       0.14547    0.28286    0.79240    1.000
    Si850    Si       0.11794    0.36823    0.77211    1.000
    N851     N        0.11015    0.29755    0.81167    1.000
    N852     N        0.15842    0.38326    0.76865    1.000
    N853     N        0.14286    0.27521    0.74805    1.000
    Si854    Si       0.12053    0.45962    0.85811    1.000
    N855     N        0.15766    0.43784    0.85534    1.000
    N856     N        0.13316    0.50104    0.86332    1.000
    Si857    Si       0.14323    0.49400    0.74848    1.000
    N858     N        0.10487    0.36297    0.81505    1.000
    Si859    Si       0.12625    0.27378    0.92125    1.000
    N860     N        0.11758    0.37467    0.90467    1.000
    Si861    Si       0.14680    0.34503    0.90028    1.000
    N862     N        0.13698    0.31508    0.92818    1.000
    Si863    Si       0.10799    0.31645    0.96244    1.000
    N864     N        0.16101    0.42404    0.92529    1.000
    Si865    Si       0.11987    0.41626    0.92049    1.000
    Si866    Si       0.11407    0.44400    0.98876    1.000
    N867     N        0.15365    0.42880    0.99467    1.000
    Si868    Si       0.10508    0.32815    0.84167    1.000
    N869     N        0.13874    0.44939    0.74550    1.000
    N870     N        0.13926    0.60883    0.10083    1.000
    Si871    Si       0.11791    0.53005    0.07226    1.000
    Si872    Si       0.13212    0.62143    0.05995    1.000
    Si873    Si       0.11128    0.55403    0.00665    1.000
    N874     N        0.11908    0.58775    0.03472    1.000
    N875     N        0.16092    0.54368    0.06396    1.000
    Si876    Si       0.14400    0.69191    0.07698    1.000
    N877     N        0.12072    0.66232    0.05299    1.000
    N878     N        0.14739    0.73022    0.06080    1.000
    N879     N        0.12776    0.68799    0.11599    1.000
    N880     N        0.14637    0.60624    0.20975    1.000
    N881     N        0.13909    0.57302    0.14902    1.000
    N882     N        0.12904    0.53674    0.21231    1.000
    Si883    Si       0.15151    0.56666    0.19075    1.000
    Si884    Si       0.10840    0.62411    0.19896    1.000
    N885     N        0.10702    0.65974    0.22356    1.000
    N886     N        0.11773    0.70945    0.17651    1.000
    N887     N        0.16062    0.75344    0.14853    1.000
    Si888    Si       0.14765    0.71051    0.14682    1.000
    Si889    Si       0.11501    0.70108    0.21767    1.000
    N890     N        0.16207    0.70665    0.99559    1.000
    N891     N        0.14291    0.53046    0.30498    1.000
    Si892    Si       0.13692    0.56737    0.33014    1.000
    N893     N        0.11862    0.60325    0.35378    1.000
    N894     N        0.15376    0.54817    0.36705    1.000
    N895     N        0.15223    0.63870    0.26893    1.000
    Si896    Si       0.12514    0.68110    0.33614    1.000
    N897     N        0.12140    0.72370    0.33225    1.000
    Si898    Si       0.12478    0.75494    0.36288    1.000
    N899     N        0.16492    0.66272    0.33791    1.000
    Si900    Si       0.11049    0.64675    0.26655    1.000
    Si901    Si       0.10626    0.74235    0.26393    1.000
    N902     N        0.14123    0.71849    0.24944    1.000
    N903     N        0.14283    0.52398    0.43168    1.000
    N904     N        0.13215    0.59343    0.42058    1.000
    Si905    Si       0.13138    0.55473    0.40368    1.000
    Si906    Si       0.11874    0.62778    0.39045    1.000
    N907     N        0.12975    0.72720    0.39605    1.000
    N908     N        0.16192    0.64499    0.40236    1.000
    N909     N        0.11239    0.66949    0.43889    1.000
    Si910    Si       0.15106    0.66503    0.45530    1.000
    Si911    Si       0.12787    0.55735    0.52410    1.000
    N912     N        0.12526    0.57857    0.56103    1.000
    Si913    Si       0.15005    0.60330    0.59126    1.000
    Si914    Si       0.13850    0.53457    0.61147    1.000
    N915     N        0.12677    0.51146    0.53183    1.000
    N916     N        0.16094    0.63093    0.54143    1.000
    N917     N        0.11655    0.63047    0.60008    1.000
    Si918    Si       0.12491    0.65521    0.53767    1.000
    Si919    Si       0.13616    0.70510    0.59571    1.000
    N920     N        0.13467    0.69433    0.55399    1.000
    Si921    Si       0.14991    0.70680    0.51562    1.000
    N922     N        0.14157    0.74933    0.59479    1.000
    N923     N        0.12646    0.74273    0.50650    1.000
    N924     N        0.13024    0.67227    0.49583    1.000
    N925     N        0.14671    0.57481    0.62614    1.000
    N926     N        0.12118    0.57781    0.69036    1.000
    Si927    Si       0.15726    0.58130    0.66640    1.000
    Si928    Si       0.11383    0.62068    0.70250    1.000
    N929     N        0.12727    0.51240    0.71330    1.000
    Si930    Si       0.15979    0.51120    0.68569    1.000
    N931     N        0.14886    0.63394    0.72495    1.000
    N932     N        0.12090    0.64576    0.66815    1.000
    Si933    Si       0.16189    0.64980    0.68678    1.000
    N934     N        0.12038    0.71535    0.73526    1.000
    N935     N        0.12649    0.73467    0.66482    1.000
    Si936    Si       0.16234    0.71320    0.72933    1.000
    Si937    Si       0.16625    0.71741    0.65560    1.000
    N938     N        0.14347    0.51017    0.64615    1.000
    N939     N        0.15057    0.58107    0.77047    1.000
    Si940    Si       0.12666    0.52388    0.82575    1.000
    Si941    Si       0.16171    0.62298    0.76462    1.000
    N942     N        0.14479    0.58817    0.86753    1.000
    N943     N        0.12374    0.50474    0.78597    1.000
    N944     N        0.14257    0.64942    0.79384    1.000
    N945     N        0.13849    0.72254    0.80015    1.000
    Si946    Si       0.16394    0.68644    0.79887    1.000
    Si947    Si       0.15944    0.52013    0.89530    1.000
    N948     N        0.13043    0.60602    0.94648    1.000
    Si949    Si       0.14917    0.56882    0.94963    1.000
    N950     N        0.13542    0.53345    0.92891    1.000
    N951     N        0.15236    0.55635    0.99303    1.000
    N952     N        0.11601    0.66406    0.96001    1.000
    Si953    Si       0.16452    0.69354    0.87935    1.000
    N954     N        0.14396    0.73132    0.88677    1.000
    N955     N        0.14227    0.66029    0.89680    1.000
    Si956    Si       0.14801    0.64636    0.93739    1.000
    N957     N        0.11499    0.73642    0.95665    1.000
    Si958    Si       0.12222    0.70261    0.98244    1.000
    Si959    Si       0.10412    0.58942    0.85373    1.000
    N960     N        0.13993    0.84551    0.04688    1.000
    Si961    Si       0.13180    0.77082    0.05959    1.000
    N962     N        0.14372    0.79555    0.09351    1.000
    Si963    Si       0.15263    0.83791    0.08936    1.000
    N964     N        0.15235    0.77919    0.02284    1.000
    Si965    Si       0.15177    0.82102    0.01147    1.000
    N966     N        0.12277    0.95918    0.02115    1.000
    N967     N        0.13026    0.91978    0.07328    1.000
    Si968    Si       0.14205    0.99674    0.03267    1.000
    Si969    Si       0.11659    0.90792    0.11164    1.000
    N970     N        0.13717    0.86866    0.12103    1.000
    Si971    Si       0.12981    0.77725    0.13061    1.000
    N972     N        0.15140    0.85656    0.18910    1.000
    Si973    Si       0.12964    0.81973    0.19110    1.000
    N974     N        0.11557    0.81252    0.15077    1.000
    N975     N        0.15958    0.79158    0.20533    1.000
    N976     N        0.12902    0.93884    0.14008    1.000
    N977     N        0.10881    0.96776    0.20254    1.000
    Si978    Si       0.13887    0.99564    0.21608    1.000
    N979     N        0.14896    0.85484    0.32233    1.000
    N980     N        0.11715    0.78418    0.26033    1.000
    Si981    Si       0.15895    0.86902    0.36268    1.000
    Si982    Si       0.15925    0.79474    0.25000    1.000
    N983     N        0.15955    0.77914    0.35143    1.000
    Si984    Si       0.10628    0.86454    0.31411    1.000
    Si985    Si       0.12799    0.93997    0.32585    1.000
    Si986    Si       0.11343    0.89522    0.26249    1.000
    N987     N        0.13307    0.00095    0.25878    1.000
    N988     N        0.10882    0.90785    0.30414    1.000
    N989     N        0.15268    0.90189    0.24656    1.000
    Si990    Si       0.13237    0.84127    0.48132    1.000
    N991     N        0.12345    0.80775    0.40633    1.000
    N992     N        0.14011    0.80013    0.47727    1.000
    N993     N        0.12183    0.87216    0.38220    1.000
    Si994    Si       0.13245    0.77958    0.44026    1.000
    N995     N        0.10950    0.85970    0.45020    1.000
    Si996    Si       0.10804    0.91405    0.38933    1.000
    N997     N        0.13500    0.94072    0.36801    1.000
    N998     N        0.13962    0.99399    0.47421    1.000
    N999     N        0.14055    0.80318    0.55092    1.000
    Si1000   Si       0.14777    0.78004    0.51525    1.000
    N1001    N        0.11765    0.86499    0.58017    1.000
    Si1002   Si       0.15925    0.87399    0.57965    1.000
    Si1003   Si       0.10745    0.83083    0.55519    1.000
    Si1004   Si       0.13848    0.94665    0.60591    1.000
    N1005    N        0.11819    0.94772    0.56960    1.000
    N1006    N        0.12445    0.91299    0.49905    1.000
    Si1007   Si       0.11204    0.98711    0.55243    1.000
    Si1008   Si       0.16525    0.89898    0.50451    1.000
    N1009    N        0.15670    0.98549    0.67998    1.000
    Si1010   Si       0.13696    0.94855    0.67278    1.000
    Si1011   Si       0.12120    0.83450    0.65827    1.000
    N1012    N        0.13468    0.83601    0.70003    1.000
    N1013    N        0.13920    0.79904    0.64141    1.000
    N1014    N        0.13086    0.87544    0.64531    1.000
    Si1015   Si       0.12057    0.76236    0.63239    1.000
    N1016    N        0.11774    0.93387    0.70847    1.000
    Si1017   Si       0.14793    0.00630    0.71604    1.000
    N1018    N        0.11145    0.94794    0.63873    1.000
    Si1019   Si       0.14542    0.93343    0.74181    1.000
    N1020    N        0.13649    0.78415    0.78134    1.000
    N1021    N        0.11808    0.77549    0.84958    1.000
    N1022    N        0.11872    0.85745    0.76510    1.000
    Si1023   Si       0.14532    0.76320    0.81763    1.000
    N1024    N        0.13386    0.88240    0.83219    1.000
    Si1025   Si       0.14238    0.97124    0.84954    1.000
    N1026    N        0.13822    0.98971    0.80945    1.000
    N1027    N        0.11944    0.92642    0.77553    1.000
    Si1028   Si       0.11141    0.97027    0.78041    1.000
    N1029    N        0.14831    0.97586    0.75102    1.000
    Si1030   Si       0.10982    0.88872    0.79413    1.000
    Si1031   Si       0.10494    0.79811    0.88442    1.000
    Si1032   Si       0.15862    0.83381    0.93136    1.000
    N1033    N        0.13689    0.82414    0.97006    1.000
    N1034    N        0.14427    0.80244    0.90370    1.000
    N1035    N        0.15283    0.87806    0.92849    1.000
    N1036    N        0.11900    0.97926    0.94712    1.000
    Si1037   Si       0.11096    0.88617    0.93013    1.000
    Si1038   Si       0.12178    0.94857    0.97663    1.000
    N1039    N        0.16153    0.00533    0.99288    1.000
    Si1040   Si       0.16587    0.76978    0.88246    1.000
    N1041    N        0.18175    0.12125    0.09533    1.000
    N1042    N        0.17198    0.05081    0.09370    1.000
    Si1043   Si       0.18630    0.08419    0.11775    1.000
    N1044    N        0.18760    0.17684    0.13154    1.000
    Si1045   Si       0.19622    0.15503    0.02019    1.000
    Si1046   Si       0.20673    0.15646    0.09619    1.000
    Si1047   Si       0.18330    0.22828    0.00859    1.000
    N1048    N        0.20676    0.23484    0.04208    1.000
    N1049    N        0.21520    0.16980    0.05644    1.000
    Si1050   Si       0.18603    0.00854    0.09657    1.000
    Si1051   Si       0.19328    0.09470    0.19063    1.000
    N1052    N        0.21893    0.12489    0.17157    1.000
    N1053    N        0.16813    0.08198    0.15591    1.000
    N1054    N        0.18055    0.17221    0.19970    1.000
    Si1055   Si       0.21400    0.19465    0.22283    1.000
    Si1056   Si       0.20795    0.16533    0.16771    1.000
    N1057    N        0.18879    0.23044    0.22711    1.000
    N1058    N        0.21985    0.06866    0.21566    1.000
    N1059    N        0.22394    0.02544    0.16405    1.000
    N1060    N        0.17880    0.05587    0.26907    1.000
    N1061    N        0.20693    0.11282    0.34695    1.000
    N1062    N        0.21120    0.04279    0.35285    1.000
    Si1063   Si       0.19608    0.12649    0.30648    1.000
    Si1064   Si       0.21928    0.06344    0.26077    1.000
    Si1065   Si       0.18451    0.00974    0.35238    1.000
    Si1066   Si       0.19489    0.20507    0.33324    1.000
    N1067    N        0.20688    0.16831    0.31051    1.000
    N1068    N        0.17038    0.24201    0.33079    1.000
    N1069    N        0.18745    0.18236    0.37057    1.000
    Si1070   Si       0.21567    0.14782    0.36743    1.000
    Si1071   Si       0.20233    0.07915    0.37793    1.000
    N1072    N        0.18542    0.01779    0.42790    1.000
    N1073    N        0.20244    0.11460    0.46881    1.000
    N1074    N        0.20802    0.13143    0.40840    1.000
    Si1075   Si       0.17886    0.13769    0.44093    1.000
    Si1076   Si       0.19185    0.19989    0.41095    1.000
    N1077    N        0.17306    0.24113    0.41201    1.000
    N1078    N        0.17157    0.18038    0.44146    1.000
    N1079    N        0.22067    0.19600    0.48481    1.000
    N1080    N        0.22013    0.10224    0.28003    1.000
    N1081    N        0.21045    0.03231    0.58211    1.000
    N1082    N        0.17480    0.09486    0.60446    1.000
    N1083    N        0.17769    0.12217    0.53471    1.000
    Si1084   Si       0.19898    0.06028    0.61468    1.000
    Si1085   Si       0.18898    0.09273    0.50426    1.000
    Si1086   Si       0.18823    0.12538    0.57660    1.000
    N1087    N        0.22396    0.06887    0.51746    1.000
    Si1088   Si       0.19129    0.24057    0.58624    1.000
    N1089    N        0.17848    0.16418    0.59537    1.000
    Si1090   Si       0.21318    0.23032    0.50903    1.000
    N1091    N        0.21461    0.22912    0.55298    1.000
    N1092    N        0.16617    0.21957    0.50583    1.000
    N1093    N        0.20176    0.11438    0.68082    1.000
    Si1094   Si       0.21107    0.05548    0.73654    1.000
    N1095    N        0.17849    0.02805    0.74150    1.000
    N1096    N        0.19993    0.09750    0.74162    1.000
    Si1097   Si       0.16799    0.11293    0.70851    1.000
    N1098    N        0.16938    0.04269    0.63887    1.000
    N1099    N        0.17618    0.18119    0.66266    1.000
    Si1100   Si       0.19830    0.18533    0.62776    1.000
    Si1101   Si       0.19293    0.17943    0.70244    1.000
    Si1102   Si       0.22038    0.25240    0.70752    1.000
    N1103    N        0.20723    0.22633    0.62413    1.000
    N1104    N        0.19329    0.22172    0.71960    1.000
    Si1105   Si       0.20396    0.12068    0.77516    1.000
    Si1106   Si       0.21591    0.05285    0.80504    1.000
    N1107    N        0.17380    0.04320    0.80533    1.000
    N1108    N        0.21885    0.09650    0.80935    1.000
    Si1109   Si       0.22450    0.02965    0.94817    1.000
    N1110    N        0.18659    0.13678    0.85954    1.000
    Si1111   Si       0.19133    0.23048    0.82888    1.000
    N1112    N        0.19855    0.18843    0.81913    1.000
    Si1113   Si       0.16903    0.15780    0.82368    1.000
    N1114    N        0.19277    0.23602    0.87116    1.000
    N1115    N        0.21942    0.03541    0.90464    1.000
    Si1116   Si       0.17845    0.03650    0.89137    1.000
    N1117    N        0.20612    0.06037    0.97082    1.000
    N1118    N        0.17589    0.10870    0.91790    1.000
    Si1119   Si       0.17079    0.07781    0.95120    1.000
    N1120    N        0.18552    0.18492    0.92122    1.000
    Si1121   Si       0.19639    0.14746    0.90407    1.000
    N1122    N        0.21348    0.23718    0.97682    1.000
    Si1123   Si       0.20385    0.19607    0.95815    1.000
    Si1124   Si       0.16710    0.21815    0.90014    1.000
    N1125    N        0.17980    0.18637    0.99312    1.000
    N1126    N        0.17550    0.30807    0.04763    1.000
    Si1127   Si       0.20649    0.27424    0.05965    1.000
    Si1128   Si       0.20108    0.34695    0.04945    1.000
    N1129    N        0.21334    0.26575    0.10381    1.000
    Si1130   Si       0.20791    0.37681    0.11246    1.000
    N1131    N        0.17553    0.38008    0.03904    1.000
    N1132    N        0.21940    0.34389    0.08753    1.000
    N1133    N        0.19008    0.48058    0.09562    1.000
    Si1134   Si       0.18577    0.42113    0.05143    1.000
    N1135    N        0.20857    0.41206    0.08740    1.000
    N1136    N        0.21153    0.45028    0.03267    1.000
    Si1137   Si       0.21615    0.44864    0.11359    1.000
    N1138    N        0.18022    0.29940    0.23533    1.000
    Si1139   Si       0.18177    0.34188    0.21892    1.000
    Si1140   Si       0.19661    0.28897    0.13600    1.000
    Si1141   Si       0.20072    0.26811    0.21190    1.000
    N1142    N        0.18146    0.26624    0.17182    1.000
    N1143    N        0.21423    0.36532    0.20454    1.000
    N1144    N        0.16716    0.37648    0.13233    1.000
    Si1145   Si       0.19812    0.47193    0.17733    1.000
    N1146    N        0.18062    0.46911    0.21581    1.000
    N1147    N        0.19181    0.43867    0.15037    1.000
    N1148    N        0.15943    0.30729    0.11748    1.000
    Si1149   Si       0.17666    0.28426    0.32693    1.000
    N1150    N        0.20660    0.35949    0.30091    1.000
    N1151    N        0.21747    0.28627    0.31517    1.000
    Si1152   Si       0.20162    0.37471    0.34100    1.000
    N1153    N        0.17089    0.29756    0.36902    1.000
    Si1154   Si       0.18562    0.38660    0.27526    1.000
    N1155    N        0.18753    0.48020    0.28725    1.000
    N1156    N        0.21648    0.41053    0.35597    1.000
    N1157    N        0.20781    0.41765    0.25302    1.000
    Si1158   Si       0.20329    0.46083    0.25166    1.000
    N1159    N        0.16755    0.41222    0.30615    1.000
    Si1160   Si       0.16319    0.45383    0.31306    1.000
    Si1161   Si       0.21796    0.48187    0.48796    1.000
    Si1162   Si       0.19614    0.27429    0.39692    1.000
    N1163    N        0.20388    0.36999    0.41289    1.000
    N1164    N        0.21416    0.30350    0.42443    1.000
    N1165    N        0.20730    0.27103    0.48962    1.000
    Si1166   Si       0.19459    0.43820    0.43408    1.000
    N1167    N        0.19310    0.47642    0.45234    1.000
    N1168    N        0.17432    0.41567    0.46789    1.000
    Si1169   Si       0.20103    0.35726    0.55175    1.000
    N1170    N        0.19522    0.28095    0.59858    1.000
    Si1171   Si       0.18081    0.29958    0.50947    1.000
    N1172    N        0.21124    0.33089    0.52138    1.000
    Si1173   Si       0.16841    0.38506    0.65167    1.000
    N1174    N        0.18444    0.39576    0.60723    1.000
    N1175    N        0.18520    0.39499    0.53617    1.000
    N1176    N        0.17904    0.46219    0.56190    1.000
    Si1177   Si       0.20306    0.40607    0.49838    1.000
    N1178    N        0.19640    0.50632    0.51715    1.000
    Si1179   Si       0.22136    0.46209    0.55088    1.000
    N1180    N        0.19802    0.42072    0.73085    1.000
    Si1181   Si       0.16556    0.50096    0.54941    1.000
    Si1182   Si       0.21854    0.26692    0.63459    1.000
    N1183    N        0.17686    0.32975    0.72139    1.000
    Si1184   Si       0.20322    0.32028    0.68799    1.000
    N1185    N        0.20340    0.27794    0.67564    1.000
    N1186    N        0.18092    0.34021    0.65642    1.000
    Si1187   Si       0.17657    0.43510    0.69434    1.000
    N1188    N        0.19988    0.40902    0.66806    1.000
    N1189    N        0.18802    0.47626    0.68686    1.000
    Si1190   Si       0.18451    0.34896    0.76167    1.000
    Si1191   Si       0.17840    0.33402    0.83169    1.000
    N1192    N        0.17369    0.31794    0.79198    1.000
    N1193    N        0.21564    0.31852    0.85001    1.000
    N1194    N        0.19238    0.37541    0.84256    1.000
    N1195    N        0.22211    0.25746    0.81182    1.000
    Si1196   Si       0.19282    0.41866    0.83772    1.000
    N1197    N        0.19489    0.43590    0.79680    1.000
    Si1198   Si       0.16962    0.42447    0.76359    1.000
    Si1199   Si       0.21665    0.35437    0.87429    1.000
    Si1200   Si       0.19768    0.27000    0.95066    1.000
    N1201    N        0.19373    0.30605    0.97667    1.000
    N1202    N        0.19045    0.34658    0.90869    1.000
    Si1203   Si       0.20085    0.34642    0.95310    1.000
    N1204    N        0.17712    0.37662    0.97071    1.000
    Si1205   Si       0.21460    0.48501    0.93804    1.000
    N1206    N        0.18102    0.48559    0.91061    1.000
    N1207    N        0.21557    0.43116    0.87651    1.000
    N1208    N        0.21721    0.44554    0.95894    1.000
    Si1209   Si       0.17682    0.44635    0.89284    1.000
    Si1210   Si       0.18221    0.41957    0.96170    1.000
    Si1211   Si       0.19494    0.52168    0.08374    1.000
    N1212    N        0.20820    0.56832    0.01872    1.000
    N1213    N        0.17160    0.61817    0.04508    1.000
    Si1214   Si       0.16546    0.57649    0.03111    1.000
    N1215    N        0.19486    0.54597    0.11945    1.000
    Si1216   Si       0.19957    0.64888    0.05380    1.000
    N1217    N        0.18474    0.67709    0.08122    1.000
    N1218    N        0.21166    0.66636    0.01546    1.000
    N1219    N        0.21331    0.73865    0.02258    1.000
    Si1220   Si       0.17179    0.73964    0.02398    1.000
    Si1221   Si       0.20849    0.69195    0.11493    1.000
    N1222    N        0.19609    0.73560    0.20797    1.000
    Si1223   Si       0.17064    0.58424    0.12093    1.000
    N1224    N        0.20427    0.61206    0.12121    1.000
    N1225    N        0.19602    0.56067    0.18939    1.000
    Si1226   Si       0.21039    0.53396    0.15596    1.000
    N1227    N        0.20738    0.60394    0.24338    1.000
    Si1228   Si       0.17327    0.63208    0.23221    1.000
    N1229    N        0.19750    0.66710    0.22092    1.000
    N1230    N        0.18741    0.69291    0.15266    1.000
    Si1231   Si       0.20980    0.69659    0.19000    1.000
    N1232    N        0.17055    0.50266    0.16568    1.000
    N1233    N        0.20796    0.54463    0.26839    1.000
    N1234    N        0.20769    0.52835    0.33151    1.000
    Si1235   Si       0.20764    0.58486    0.28505    1.000
    Si1236   Si       0.18365    0.52146    0.29670    1.000
    Si1237   Si       0.18074    0.51379    0.36096    1.000
    N1238    N        0.17267    0.59006    0.31227    1.000
    Si1239   Si       0.17129    0.63310    0.30745    1.000
    N1240    N        0.21362    0.64237    0.29524    1.000
    N1241    N        0.21442    0.70784    0.27131    1.000
    Si1242   Si       0.18183    0.72970    0.25042    1.000
    N1243    N        0.21880    0.74707    0.33195    1.000
    Si1244   Si       0.22271    0.66610    0.25766    1.000
    N1245    N        0.20566    0.59254    0.41684    1.000
    N1246    N        0.20723    0.54471    0.46118    1.000
    Si1247   Si       0.18541    0.51545    0.43424    1.000
    Si1248   Si       0.17018    0.61126    0.43009    1.000
    N1249    N        0.20720    0.50957    0.39588    1.000
    N1250    N        0.17417    0.62985    0.46827    1.000
    Si1251   Si       0.18903    0.66423    0.37427    1.000
    Si1252   Si       0.16968    0.72614    0.41051    1.000
    N1253    N        0.17252    0.70025    0.44538    1.000
    N1254    N        0.21702    0.74973    0.46752    1.000
    Si1255   Si       0.20812    0.70847    0.46766    1.000
    N1256    N        0.19833    0.70575    0.38464    1.000
    N1257    N        0.19141    0.61311    0.59728    1.000
    Si1258   Si       0.17850    0.61168    0.50695    1.000
    Si1259   Si       0.20382    0.54809    0.50551    1.000
    N1260    N        0.22068    0.61419    0.52145    1.000
    Si1261   Si       0.21736    0.62744    0.56392    1.000
    N1262    N        0.16962    0.52473    0.58420    1.000
    N1263    N        0.16606    0.56943    0.51112    1.000
    Si1264   Si       0.21313    0.68783    0.60900    1.000
    N1265    N        0.19279    0.70137    0.50740    1.000
    N1266    N        0.21708    0.67035    0.56906    1.000
    Si1267   Si       0.21080    0.62024    0.63689    1.000
    N1268    N        0.18286    0.54910    0.67924    1.000
    N1269    N        0.18275    0.61473    0.66858    1.000
    N1270    N        0.17198    0.69537    0.61893    1.000
    N1271    N        0.17172    0.69276    0.69103    1.000
    N1272    N        0.19935    0.74596    0.65780    1.000
    N1273    N        0.17616    0.75591    0.72654    1.000
    N1274    N        0.22875    0.65875    0.63710    1.000
    Si1275   Si       0.18274    0.57116    0.85245    1.000
    N1276    N        0.21494    0.59448    0.83537    1.000
    N1277    N        0.20596    0.62709    0.77039    1.000
    Si1278   Si       0.17543    0.54602    0.78037    1.000
    N1279    N        0.18243    0.50899    0.75612    1.000
    N1280    N        0.21827    0.55680    0.77742    1.000
    N1281    N        0.16723    0.54080    0.82235    1.000
    N1282    N        0.18625    0.69222    0.76042    1.000
    N1283    N        0.17945    0.68516    0.83894    1.000
    Si1284   Si       0.21927    0.66531    0.75328    1.000
    Si1285   Si       0.22136    0.69162    0.85149    1.000
    Si1286   Si       0.19550    0.54613    0.98385    1.000
    N1287    N        0.19378    0.57071    0.94926    1.000
    N1288    N        0.19386    0.54314    0.88319    1.000
    Si1289   Si       0.21831    0.65486    0.91833    1.000
    Si1290   Si       0.19686    0.68726    0.97980    1.000
    N1291    N        0.18725    0.65769    0.95007    1.000
    N1292    N        0.22017    0.71741    0.95723    1.000
    N1293    N        0.20522    0.69286    0.89492    1.000
    N1294    N        0.21340    0.50984    0.97232    1.000
    N1295    N        0.19338    0.85425    0.08290    1.000
    N1296    N        0.19386    0.83554    0.01289    1.000
    Si1297   Si       0.18171    0.86570    0.04389    1.000
    N1298    N        0.18604    0.90687    0.03676    1.000
    N1299    N        0.19288    0.93523    0.10111    1.000
    Si1300   Si       0.21775    0.91314    0.00545    1.000
    N1301    N        0.17044    0.98365    0.06328    1.000
    Si1302   Si       0.16859    0.93770    0.06434    1.000
    N1303    N        0.22156    0.95577    0.00553    1.000
    Si1304   Si       0.18319    0.00798    0.17291    1.000
    Si1305   Si       0.16819    0.87296    0.15354    1.000
    N1306    N        0.20921    0.85561    0.14949    1.000
    Si1307   Si       0.18293    0.76762    0.18108    1.000
    Si1308   Si       0.17198    0.86815    0.22567    1.000
    N1309    N        0.21945    0.77944    0.16327    1.000
    N1310    N        0.21194    0.88059    0.21957    1.000
    Si1311   Si       0.17300    0.94683    0.13704    1.000
    N1312    N        0.17423    0.98999    0.13467    1.000
    Si1313   Si       0.21654    0.97059    0.22917    1.000
    N1314    N        0.18545    0.91372    0.16405    1.000
    N1315    N        0.18163    0.98483    0.21009    1.000
    N1316    N        0.20829    0.81402    0.30994    1.000
    Si1317   Si       0.18219    0.84707    0.29540    1.000
    Si1318   Si       0.18869    0.77462    0.31823    1.000
    N1319    N        0.18317    0.76799    0.27472    1.000
    N1320    N        0.17025    0.83607    0.25484    1.000
    N1321    N        0.20736    0.88158    0.28498    1.000
    Si1322   Si       0.20237    0.95841    0.31798    1.000
    Si1323   Si       0.18238    0.91648    0.27437    1.000
    N1324    N        0.21172    0.94944    0.26757    1.000
    N1325    N        0.18548    0.99960    0.31006    1.000
    N1326    N        0.20095    0.97056    0.36322    1.000
    N1327    N        0.16763    0.93365    0.31137    1.000
    N1328    N        0.18215    0.83813    0.38410    1.000
    Si1329   Si       0.20942    0.85412    0.46693    1.000
    Si1330   Si       0.21151    0.86942    0.39345    1.000
    Si1331   Si       0.21222    0.77850    0.43369    1.000
    N1332    N        0.17167    0.76890    0.42253    1.000
    N1333    N        0.16896    0.86386    0.48044    1.000
    Si1334   Si       0.21369    0.92339    0.44893    1.000
    Si1335   Si       0.16380    0.79891    0.39041    1.000
    N1336    N        0.18498    0.90069    0.37846    1.000
    N1337    N        0.21431    0.88250    0.43397    1.000
    Si1338   Si       0.17728    0.94332    0.38638    1.000
    Si1339   Si       0.17648    0.98278    0.45489    1.000
    N1340    N        0.19408    0.92977    0.49104    1.000
    N1341    N        0.18755    0.95079    0.42883    1.000
    N1342    N        0.20195    0.78520    0.60096    1.000
    Si1343   Si       0.21548    0.82713    0.60102    1.000
    N1344    N        0.18256    0.85354    0.60911    1.000
    Si1345   Si       0.22011    0.86999    0.53965    1.000
    N1346    N        0.18472    0.76408    0.53388    1.000
    Si1347   Si       0.16826    0.77613    0.57453    1.000
    Si1348   Si       0.22123    0.75720    0.51120    1.000
    N1349    N        0.17711    0.87907    0.54161    1.000
    N1350    N        0.19665    0.96463    0.55839    1.000
    Si1351   Si       0.20207    0.93209    0.58514    1.000
    Si1352   Si       0.20557    0.96287    0.51764    1.000
    Si1353   Si       0.17876    0.00215    0.57574    1.000
    N1354    N        0.19683    0.00147    0.49770    1.000
    Si1355   Si       0.17887    0.83654    0.70711    1.000
    N1356    N        0.19587    0.86858    0.67992    1.000
    N1357    N        0.20240    0.80796    0.68728    1.000
    Si1358   Si       0.20517    0.76717    0.69575    1.000
    Si1359   Si       0.19845    0.90851    0.69438    1.000
    Si1360   Si       0.17361    0.88698    0.63955    1.000
    N1361    N        0.17190    0.92447    0.66464    1.000
    Si1362   Si       0.17992    0.00239    0.64932    1.000
    N1363    N        0.18318    0.91652    0.73386    1.000
    N1364    N        0.22206    0.99204    0.65881    1.000
    Si1365   Si       0.22822    0.76137    0.62782    1.000
    N1366    N        0.16611    0.91289    0.60134    1.000
    N1367    N        0.16644    0.98267    0.61246    1.000
    N1368    N        0.21266    0.77899    0.78071    1.000
    Si1369   Si       0.17271    0.78405    0.75826    1.000
    N1370    N        0.18250    0.76708    0.84140    1.000
    Si1371   Si       0.22197    0.76496    0.82194    1.000
    N1372    N        0.18530    0.82475    0.74916    1.000
    Si1373   Si       0.22296    0.83153    0.77070    1.000
    N1374    N        0.20209    0.89760    0.80076    1.000
    Si1375   Si       0.17281    0.90022    0.83247    1.000
    N1376    N        0.20646    0.98615    0.79336    1.000
    N1377    N        0.20732    0.89132    0.86291    1.000
    Si1378   Si       0.21506    0.90416    0.76088    1.000
    Si1379   Si       0.21003    0.99325    0.83866    1.000
    N1380    N        0.16774    0.93865    0.85340    1.000
    Si1381   Si       0.16924    0.00593    0.78011    1.000
    N1382    N        0.19740    0.82554    0.94264    1.000
    Si1383   Si       0.21609    0.84302    0.97768    1.000
    Si1384   Si       0.22027    0.79375    0.92933    1.000
    N1385    N        0.20159    0.76271    0.90726    1.000
    N1386    N        0.20629    0.88715    0.97447    1.000
    N1387    N        0.16467    0.93725    0.97263    1.000
    Si1388   Si       0.18880    0.97184    0.98381    1.000
    Si1389   Si       0.18145    0.90666    0.94609    1.000
    N1390    N        0.20913    0.92917    0.92023    1.000
    Si1391   Si       0.20575    0.93126    0.87688    1.000
    N1392    N        0.21338    0.98920    0.95138    1.000
    N1393    N        0.17039    0.00369    0.86155    1.000
    N1394    N        0.27303    0.07604    0.00830    1.000
    N1395    N        0.22916    0.01540    0.09601    1.000
    Si1396   Si       0.27867    0.03329    0.00190    1.000
    N1397    N        0.25923    0.24661    0.14845    1.000
    Si1398   Si       0.25378    0.24992    0.10687    1.000
    N1399    N        0.26972    0.20190    0.01576    1.000
    N1400    N        0.26516    0.21211    0.08764    1.000
    Si1401   Si       0.24087    0.20568    0.04969    1.000
    N1402    N        0.24498    0.15060    0.11632    1.000
    Si1403   Si       0.27159    0.24640    0.23512    1.000
    N1404    N        0.22842    0.08098    0.12215    1.000
    Si1405   Si       0.24560    0.03711    0.20104    1.000
    Si1406   Si       0.24881    0.11428    0.13900    1.000
    Si1407   Si       0.24313    0.04054    0.12788    1.000
    Si1408   Si       0.27134    0.21007    0.17061    1.000
    N1409    N        0.23721    0.19128    0.18503    1.000
    N1410    N        0.26342    0.00796    0.03307    1.000
    N1411    N        0.22355    0.12804    0.00228    1.000
    Si1412   Si       0.24925    0.03819    0.33048    1.000
    N1413    N        0.24852    0.04012    0.28618    1.000
    N1414    N        0.27803    0.06171    0.35039    1.000
    Si1415   Si       0.25143    0.13008    0.26493    1.000
    Si1416   Si       0.28096    0.14390    0.40159    1.000
    Si1417   Si       0.26858    0.00604    0.26302    1.000
    N1418    N        0.23814    0.21679    0.32020    1.000
    N1419    N        0.27079    0.16048    0.29070    1.000
    Si1420   Si       0.23904    0.18853    0.28710    1.000
    N1421    N        0.24602    0.21679    0.25331    1.000
    N1422    N        0.26062    0.15133    0.36294    1.000
    N1423    N        0.22424    0.15946    0.24776    1.000
    N1424    N        0.22697    0.07135    0.41371    1.000
    Si1425   Si       0.23480    0.10765    0.43973    1.000
    N1426    N        0.25048    0.02727    0.46665    1.000
    N1427    N        0.26862    0.09039    0.46396    1.000
    Si1428   Si       0.22784    0.03133    0.42956    1.000
    N1429    N        0.23085    0.25675    0.37667    1.000
    Si1430   Si       0.25607    0.23988    0.40701    1.000
    N1431    N        0.25874    0.25785    0.44513    1.000
    N1432    N        0.23546    0.20367    0.41658    1.000
    Si1433   Si       0.24914    0.18392    0.45344    1.000
    N1434    N        0.26191    0.14441    0.44275    1.000
    Si1435   Si       0.28261    0.24059    0.47696    1.000
    Si1436   Si       0.24492    0.25665    0.33436    1.000
    N1437    N        0.27751    0.10262    0.24632    1.000
    Si1438   Si       0.24941    0.09533    0.54179    1.000
    Si1439   Si       0.25355    0.03150    0.57575    1.000
    N1440    N        0.26444    0.01697    0.53371    1.000
    N1441    N        0.27526    0.06864    0.56376    1.000
    N1442    N        0.23127    0.12060    0.57361    1.000
    Si1443   Si       0.23071    0.02719    0.50462    1.000
    N1444    N        0.27904    0.01494    0.60707    1.000
    N1445    N        0.27718    0.12406    0.51979    1.000
    Si1446   Si       0.25760    0.22163    0.55398    1.000
    Si1447   Si       0.25748    0.14911    0.59120    1.000
    N1448    N        0.26806    0.17807    0.56029    1.000
    N1449    N        0.26177    0.23955    0.51530    1.000
    N1450    N        0.23502    0.17180    0.70076    1.000
    N1451    N        0.23856    0.06781    0.63490    1.000
    N1452    N        0.26791    0.11671    0.67478    1.000
    Si1453   Si       0.23539    0.08650    0.67372    1.000
    Si1454   Si       0.27640    0.04667    0.63708    1.000
    Si1455   Si       0.24482    0.01271    0.68968    1.000
    N1456    N        0.23060    0.05254    0.69966    1.000
    N1457    N        0.28378    0.02694    0.67542    1.000
    N1458    N        0.23906    0.16647    0.62715    1.000
    Si1459   Si       0.25883    0.15819    0.73775    1.000
    N1460    N        0.26150    0.24458    0.69521    1.000
    Si1461   Si       0.25709    0.15704    0.66611    1.000
    N1462    N        0.23508    0.03972    0.76929    1.000
    N1463    N        0.23268    0.03005    0.83701    1.000
    Si1464   Si       0.22410    0.11653    0.84645    1.000
    N1465    N        0.25404    0.14888    0.83715    1.000
    Si1466   Si       0.24062    0.17729    0.80715    1.000
    N1467    N        0.27046    0.20649    0.81044    1.000
    N1468    N        0.23347    0.15256    0.77248    1.000
    N1469    N        0.23944    0.14708    0.89945    1.000
    N1470    N        0.24052    0.08798    0.87510    1.000
    Si1471   Si       0.24829    0.04671    0.87393    1.000
    N1472    N        0.24907    0.10669    0.95148    1.000
    Si1473   Si       0.25530    0.10900    0.91041    1.000
    N1474    N        0.26833    0.02879    0.95942    1.000
    Si1475   Si       0.23526    0.08679    0.98821    1.000
    N1476    N        0.25418    0.21336    0.87811    1.000
    Si1477   Si       0.23142    0.25093    0.88496    1.000
    Si1478   Si       0.25855    0.22315    0.97715    1.000
    Si1479   Si       0.26282    0.17211    0.87385    1.000
    N1480    N        0.24500    0.18414    0.95849    1.000
    Si1481   Si       0.25248    0.14415    0.97045    1.000
    N1482    N        0.27710    0.19775    0.74437    1.000
    Si1483   Si       0.25546    0.31926    0.07727    1.000
    N1484    N        0.23988    0.29515    0.04463    1.000
    Si1485   Si       0.23017    0.30668    0.00445    1.000
    N1486    N        0.22869    0.34907    0.01476    1.000
    N1487    N        0.27712    0.28381    0.09258    1.000
    N1488    N        0.27119    0.46920    0.02307    1.000
    Si1489   Si       0.24129    0.47439    0.05569    1.000
    N1490    N        0.25430    0.46188    0.09501    1.000
    N1491    N        0.26276    0.41229    0.99782    1.000
    Si1492   Si       0.23811    0.44829    0.99621    1.000
    N1493    N        0.24473    0.27037    0.21048    1.000
    Si1494   Si       0.26124    0.28331    0.17166    1.000
    Si1495   Si       0.23853    0.35213    0.17135    1.000
    N1496    N        0.23094    0.31057    0.15789    1.000
    N1497    N        0.27893    0.36934    0.18631    1.000
    Si1498   Si       0.23590    0.39845    0.22480    1.000
    N1499    N        0.23909    0.48500    0.24097    1.000
    N1500    N        0.23783    0.38396    0.14244    1.000
    Si1501   Si       0.26871    0.40673    0.16343    1.000
    N1502    N        0.25603    0.42964    0.19998    1.000
    N1503    N        0.23261    0.49417    0.16498    1.000
    Si1504   Si       0.27392    0.46308    0.22318    1.000
    N1505    N        0.27059    0.33057    0.29418    1.000
    Si1506   Si       0.23213    0.32808    0.31582    1.000
    N1507    N        0.22725    0.34038    0.35698    1.000
    Si1508   Si       0.28097    0.48017    0.29642    1.000
    N1509    N        0.26706    0.38346    0.25133    1.000
    Si1510   Si       0.25487    0.42447    0.34529    1.000
    N1511    N        0.25234    0.45586    0.31700    1.000
    N1512    N        0.27906    0.39251    0.32781    1.000
    Si1513   Si       0.23526    0.29111    0.46217    1.000
    N1514    N        0.26436    0.35597    0.42139    1.000
    N1515    N        0.26652    0.31430    0.48059    1.000
    Si1516   Si       0.22855    0.33720    0.39904    1.000
    N1517    N        0.23163    0.37979    0.48016    1.000
    N1518    N        0.25774    0.49862    0.48417    1.000
    N1519    N        0.23718    0.42577    0.43144    1.000
    N1520    N        0.27023    0.48625    0.41401    1.000
    Si1521   Si       0.23661    0.38356    0.43781    1.000
    Si1522   Si       0.27305    0.44308    0.41800    1.000
    N1523    N        0.28173    0.42570    0.37885    1.000
    Si1524   Si       0.28214    0.37008    0.29149    1.000
    N1525    N        0.23618    0.36674    0.57336    1.000
    Si1526   Si       0.24888    0.34635    0.50233    1.000
    Si1527   Si       0.27778    0.35547    0.57007    1.000
    N1528    N        0.25730    0.48713    0.55262    1.000
    N1529    N        0.24015    0.43650    0.58264    1.000
    Si1530   Si       0.27709    0.46203    0.58183    1.000
    Si1531   Si       0.22781    0.39973    0.60246    1.000
    Si1532   Si       0.27644    0.35072    0.69980    1.000
    N1533    N        0.25967    0.27706    0.63413    1.000
    Si1534   Si       0.27068    0.28339    0.67650    1.000
    N1535    N        0.24759    0.32126    0.68922    1.000
    N1536    N        0.22696    0.27273    0.74412    1.000
    N1537    N        0.24461    0.50590    0.72376    1.000
    Si1538   Si       0.23427    0.39974    0.74066    1.000
    Si1539   Si       0.24128    0.41181    0.67264    1.000
    N1540    N        0.25406    0.39523    0.63588    1.000
    Si1541   Si       0.23076    0.48878    0.68617    1.000
    N1542    N        0.25344    0.45283    0.67659    1.000
    N1543    N        0.25739    0.38776    0.70593    1.000
    N1544    N        0.28125    0.36383    0.52717    1.000
    N1545    N        0.28274    0.31328    0.57809    1.000
    N1546    N        0.22000    0.44572    0.50830    1.000
    N1547    N        0.25817    0.30718    0.79536    1.000
    Si1548   Si       0.26319    0.34299    0.77257    1.000
    Si1549   Si       0.24097    0.29187    0.83141    1.000
    N1550    N        0.26651    0.27068    0.86009    1.000
    Si1551   Si       0.25229    0.26750    0.77748    1.000
    N1552    N        0.22626    0.36225    0.76221    1.000
    Si1553   Si       0.25471    0.41770    0.86810    1.000
    N1554    N        0.25860    0.42704    0.76587    1.000
    N1555    N        0.24272    0.49452    0.79398    1.000
    N1556    N        0.25562    0.42566    0.82670    1.000
    Si1557   Si       0.23709    0.45177    0.79448    1.000
    Si1558   Si       0.25799    0.37087    0.99131    1.000
    Si1559   Si       0.26778    0.28488    0.94062    1.000
    N1560    N        0.24342    0.36318    0.95031    1.000
    N1561    N        0.26351    0.29731    0.98154    1.000
    Si1562   Si       0.27238    0.35892    0.91842    1.000
    N1563    N        0.22971    0.27286    0.92188    1.000
    N1564    N        0.27787    0.31717    0.91303    1.000
    N1565    N        0.25409    0.37453    0.88339    1.000
    N1566    N        0.24690    0.49985    0.91267    1.000
    Si1567   Si       0.24306    0.55238    0.03665    1.000
    N1568    N        0.26831    0.57585    0.06184    1.000
    N1569    N        0.26934    0.54295    0.00322    1.000
    N1570    N        0.22950    0.51639    0.05610    1.000
    Si1571   Si       0.24143    0.62625    0.10844    1.000
    N1572    N        0.24027    0.63819    0.06572    1.000
    Si1573   Si       0.25114    0.66054    0.03164    1.000
    N1574    N        0.26384    0.69904    0.04769    1.000
    Si1575   Si       0.24043    0.73478    0.05741    1.000
    N1576    N        0.22458    0.73177    0.10157    1.000
    N1577    N        0.25941    0.55818    0.22759    1.000
    N1578    N        0.25522    0.61013    0.19292    1.000
    N1579    N        0.25588    0.54999    0.15455    1.000
    Si1580   Si       0.27653    0.58915    0.16067    1.000
    Si1581   Si       0.22721    0.58233    0.21142    1.000
    N1582    N        0.27982    0.61332    0.12614    1.000
    Si1583   Si       0.27335    0.50996    0.16441    1.000
    Si1584   Si       0.25102    0.75230    0.17498    1.000
    Si1585   Si       0.27485    0.68157    0.15174    1.000
    N1586    N        0.25001    0.70764    0.17759    1.000
    Si1587   Si       0.28022    0.63734    0.21626    1.000
    N1588    N        0.24460    0.66780    0.12347    1.000
    Si1589   Si       0.24654    0.54438    0.32385    1.000
    N1590    N        0.26924    0.53141    0.35691    1.000
    N1591    N        0.24161    0.58572    0.31296    1.000
    N1592    N        0.26587    0.52085    0.28995    1.000
    Si1593   Si       0.24442    0.52611    0.25290    1.000
    Si1594   Si       0.23992    0.62674    0.32615    1.000
    Si1595   Si       0.23913    0.73561    0.29555    1.000
    N1596    N        0.27674    0.65119    0.32649    1.000
    N1597    N        0.26595    0.66228    0.25071    1.000
    N1598    N        0.27919    0.71335    0.29664    1.000
    Si1599   Si       0.26698    0.66521    0.36848    1.000
    N1600    N        0.22670    0.64548    0.36229    1.000
    N1601    N        0.25980    0.60119    0.46567    1.000
    Si1602   Si       0.25052    0.51968    0.39393    1.000
    N1603    N        0.26368    0.54723    0.42665    1.000
    Si1604   Si       0.23388    0.57472    0.44293    1.000
    Si1605   Si       0.28059    0.51141    0.44895    1.000
    Si1606   Si       0.28009    0.68525    0.48669    1.000
    Si1607   Si       0.23033    0.73268    0.37018    1.000
    N1608    N        0.26573    0.70881    0.37056    1.000
    N1609    N        0.24198    0.68453    0.46552    1.000
    N1610    N        0.25929    0.61778    0.57819    1.000
    N1611    N        0.24586    0.55358    0.51758    1.000
    Si1612   Si       0.27105    0.58977    0.60818    1.000
    Si1613   Si       0.25819    0.59346    0.50681    1.000
    Si1614   Si       0.26778    0.51599    0.52319    1.000
    N1615    N        0.28221    0.54973    0.59401    1.000
    Si1616   Si       0.26080    0.73832    0.57276    1.000
    N1617    N        0.24132    0.72938    0.53709    1.000
    N1618    N        0.26721    0.67050    0.52672    1.000
    N1619    N        0.23485    0.72522    0.60393    1.000
    Si1620   Si       0.22883    0.68909    0.53213    1.000
    N1621    N        0.23857    0.58321    0.70610    1.000
    N1622    N        0.24451    0.52216    0.65912    1.000
    Si1623   Si       0.25563    0.62219    0.70937    1.000
    N1624    N        0.24086    0.58719    0.63974    1.000
    Si1625   Si       0.27911    0.52398    0.63096    1.000
    Si1626   Si       0.22647    0.55957    0.67207    1.000
    N1627    N        0.27915    0.64077    0.67747    1.000
    N1628    N        0.27008    0.70871    0.67119    1.000
    Si1629   Si       0.24998    0.67114    0.67223    1.000
    N1630    N        0.23022    0.65828    0.71092    1.000
    Si1631   Si       0.27417    0.74781    0.68482    1.000
    N1632    N        0.24353    0.76033    0.71065    1.000
    N1633    N        0.26786    0.60611    0.79544    1.000
    Si1634   Si       0.24352    0.61892    0.86076    1.000
    N1635    N        0.25786    0.52966    0.85171    1.000
    Si1636   Si       0.27449    0.51230    0.81723    1.000
    Si1637   Si       0.22497    0.51802    0.76096    1.000
    Si1638   Si       0.22618    0.59591    0.79383    1.000
    N1639    N        0.23226    0.72158    0.82153    1.000
    N1640    N        0.25578    0.67581    0.77352    1.000
    Si1641   Si       0.26569    0.71248    0.79550    1.000
    N1642    N        0.25099    0.66128    0.85842    1.000
    N1643    N        0.27773    0.74492    0.76729    1.000
    Si1644   Si       0.28245    0.74322    0.85626    1.000
    Si1645   Si       0.23006    0.58826    0.93242    1.000
    N1646    N        0.26054    0.60370    0.96338    1.000
    Si1647   Si       0.23662    0.53514    0.88897    1.000
    N1648    N        0.26151    0.56096    0.91504    1.000
    Si1649   Si       0.23823    0.74369    0.98619    1.000
    N1650    N        0.25965    0.72290    0.88650    1.000
    Si1651   Si       0.27563    0.68217    0.88895    1.000
    N1652    N        0.26038    0.66662    0.92634    1.000
    Si1653   Si       0.22458    0.72702    0.91309    1.000
    N1654    N        0.28160    0.59852    0.85803    1.000
    N1655    N        0.28000    0.73275    0.99347    1.000
    Si1656   Si       0.28352    0.64069    0.77502    1.000
    Si1657   Si       0.28521    0.52039    0.93210    1.000
    N1658    N        0.22345    0.61617    0.90000    1.000
    N1659    N        0.27501    0.66174    0.99589    1.000
    N1660    N        0.25982    0.77131    0.07188    1.000
    N1661    N        0.24811    0.81652    0.11502    1.000
    Si1662   Si       0.24499    0.76996    0.11261    1.000
    N1663    N        0.27303    0.84402    0.05146    1.000
    Si1664   Si       0.27621    0.81149    0.08145    1.000
    Si1665   Si       0.22576    0.85597    0.10908    1.000
    Si1666   Si       0.27387    0.88681    0.05899    1.000
    N1667    N        0.25175    0.89042    0.10014    1.000
    N1668    N        0.25220    0.95601    0.06660    1.000
    Si1669   Si       0.23605    0.93656    0.09991    1.000
    Si1670   Si       0.26138    0.96276    0.02450    1.000
    N1671    N        0.25881    0.90632    0.02206    1.000
    Si1672   Si       0.26125    0.99838    0.07452    1.000
    N1673    N        0.26567    0.89950    0.17232    1.000
    N1674    N        0.26865    0.76589    0.21160    1.000
    Si1675   Si       0.26831    0.80927    0.22660    1.000
    N1676    N        0.26386    0.82931    0.18916    1.000
    Si1677   Si       0.23414    0.81983    0.15820    1.000
    Si1678   Si       0.22419    0.90432    0.18407    1.000
    N1679    N        0.24374    0.00412    0.22750    1.000
    N1680    N        0.26132    0.94575    0.13348    1.000
    N1681    N        0.23593    0.94309    0.20460    1.000
    Si1682   Si       0.26769    0.94508    0.17721    1.000
    N1683    N        0.27731    0.76238    0.14058    1.000
    Si1684   Si       0.25062    0.81007    0.29760    1.000
    N1685    N        0.26116    0.77094    0.28190    1.000
    N1686    N        0.25423    0.83260    0.25981    1.000
    Si1687   Si       0.23639    0.87142    0.25573    1.000
    N1688    N        0.27551    0.82036    0.33106    1.000
    N1689    N        0.24290    0.87153    0.36659    1.000
    N1690    N        0.26891    0.90086    0.25911    1.000
    Si1691   Si       0.25338    0.93521    0.28149    1.000
    N1692    N        0.23978    0.93278    0.32222    1.000
    Si1693   Si       0.25874    0.91077    0.35404    1.000
    N1694    N        0.26183    0.99493    0.33815    1.000
    N1695    N        0.27912    0.96952    0.28060    1.000
    Si1696   Si       0.24348    0.97602    0.37250    1.000
    Si1697   Si       0.27211    0.78956    0.40197    1.000
    Si1698   Si       0.25923    0.80520    0.46849    1.000
    N1699    N        0.23319    0.76712    0.39806    1.000
    N1700    N        0.28095    0.77643    0.44084    1.000
    Si1701   Si       0.27372    0.93480    0.49441    1.000
    N1702    N        0.25183    0.00559    0.40377    1.000
    N1703    N        0.26019    0.93928    0.38623    1.000
    N1704    N        0.25474    0.93161    0.45567    1.000
    Si1705   Si       0.28091    0.85209    0.35919    1.000
    N1706    N        0.22147    0.81635    0.44993    1.000
    N1707    N        0.24794    0.79287    0.50963    1.000
    Si1708   Si       0.26221    0.80943    0.54626    1.000
    N1709    N        0.23524    0.86266    0.50091    1.000
    N1710    N        0.27719    0.78083    0.57486    1.000
    Si1711   Si       0.27792    0.86010    0.50133    1.000
    N1712    N        0.22978    0.83453    0.56175    1.000
    Si1713   Si       0.26306    0.91957    0.59270    1.000
    N1714    N        0.24932    0.95916    0.51716    1.000
    N1715    N        0.23113    0.90347    0.56605    1.000
    N1716    N        0.22982    0.93422    0.61793    1.000
    N1717    N        0.23658    0.92954    0.68987    1.000
    N1718    N        0.24919    0.98773    0.72495    1.000
    Si1719   Si       0.22680    0.84024    0.66868    1.000
    Si1720   Si       0.27850    0.81378    0.65135    1.000
    N1721    N        0.26612    0.83663    0.68786    1.000
    N1722    N        0.24505    0.83230    0.63115    1.000
    N1723    N        0.26574    0.77246    0.65035    1.000
    Si1724   Si       0.26851    0.84909    0.72801    1.000
    Si1725   Si       0.24224    0.95358    0.65421    1.000
    Si1726   Si       0.26167    0.94557    0.72244    1.000
    N1727    N        0.23328    0.86813    0.74542    1.000
    N1728    N        0.26079    0.77845    0.84009    1.000
    Si1729   Si       0.26725    0.82038    0.83379    1.000
    N1730    N        0.23273    0.83695    0.81385    1.000
    N1731    N        0.26794    0.85658    0.86199    1.000
    Si1732   Si       0.24716    0.77125    0.75257    1.000
    N1733    N        0.25858    0.81293    0.75358    1.000
    Si1734   Si       0.23367    0.87814    0.83062    1.000
    N1735    N        0.27001    0.93166    0.95692    1.000
    Si1736   Si       0.24354    0.99394    0.76832    1.000
    N1737    N        0.24765    0.93207    0.76039    1.000
    N1738    N        0.26813    0.90638    0.82242    1.000
    N1739    N        0.23128    0.96305    0.85968    1.000
    N1740    N        0.27908    0.97953    0.78796    1.000
    Si1741   Si       0.27941    0.93623    0.79069    1.000
    N1742    N        0.24483    0.77814    0.96241    1.000
    N1743    N        0.25769    0.83521    0.98035    1.000
    N1744    N        0.25576    0.81129    0.91236    1.000
    Si1745   Si       0.27945    0.81051    0.95153    1.000
    Si1746   Si       0.24091    0.95640    0.93743    1.000
    Si1747   Si       0.27290    0.95959    0.87178    1.000
    N1748    N        0.27203    0.97940    0.91232    1.000
    N1749    N        0.32245    0.02793    0.01164    1.000
    N1750    N        0.33092    0.09764    0.03591    1.000
    Si1751   Si       0.30686    0.10196    0.00138    1.000
    Si1752   Si       0.32181    0.03294    0.11631    1.000
    Si1753   Si       0.33588    0.13513    0.05790    1.000
    N1754    N        0.30384    0.14774    0.08402    1.000
    Si1755   Si       0.30574    0.18055    0.00211    1.000
    N1756    N        0.33748    0.16686    0.02927    1.000
    N1757    N        0.28706    0.04820    0.19443    1.000
    N1758    N        0.32998    0.09431    0.20282    1.000
    Si1759   Si       0.30569    0.07195    0.23346    1.000
    Si1760   Si       0.30459    0.07499    0.16406    1.000
    N1761    N        0.28833    0.11477    0.15609    1.000
    N1762    N        0.28491    0.05162    0.13081    1.000
    Si1763   Si       0.31033    0.00960    0.20169    1.000
    Si1764   Si       0.33441    0.20763    0.19825    1.000
    N1765    N        0.30702    0.02055    0.24498    1.000
    Si1766   Si       0.31767    0.14663    0.16272    1.000
    N1767    N        0.29470    0.18162    0.14581    1.000
    N1768    N        0.33388    0.16331    0.19962    1.000
    N1769    N        0.29471    0.22250    0.20592    1.000
    N1770    N        0.34310    0.04149    0.07920    1.000
    Si1771   Si       0.27981    0.17371    0.10796    1.000
    Si1772   Si       0.30413    0.09260    0.35915    1.000
    N1773    N        0.31445    0.11915    0.32754    1.000
    N1774    N        0.32303    0.01710    0.31658    1.000
    Si1775   Si       0.33350    0.03148    0.27806    1.000
    N1776    N        0.33114    0.07396    0.26922    1.000
    N1777    N        0.31840    0.18714    0.33743    1.000
    Si1778   Si       0.29069    0.15625    0.32758    1.000
    Si1779   Si       0.28646    0.05097    0.46570    1.000
    N1780    N        0.29876    0.10663    0.39979    1.000
    Si1781   Si       0.32529    0.07654    0.41392    1.000
    N1782    N        0.30828    0.04001    0.42911    1.000
    Si1783   Si       0.28539    0.12671    0.47807    1.000
    N1784    N        0.31449    0.17193    0.40680    1.000
    Si1785   Si       0.32318    0.18076    0.44992    1.000
    N1786    N        0.32702    0.14623    0.47464    1.000
    Si1787   Si       0.32023    0.20292    0.37833    1.000
    N1788    N        0.29528    0.23772    0.38694    1.000
    N1789    N        0.28909    0.20144    0.46298    1.000
    N1790    N        0.34151    0.07175    0.36672    1.000
    Si1791   Si       0.30572    0.04355    0.54013    1.000
    Si1792   Si       0.30632    0.08733    0.58956    1.000
    N1793    N        0.33745    0.06920    0.56689    1.000
    N1794    N        0.31504    0.05069    0.49744    1.000
    N1795    N        0.29519    0.12909    0.58728    1.000
    N1796    N        0.33441    0.18890    0.60948    1.000
    Si1797   Si       0.29848    0.14958    0.54824    1.000
    Si1798   Si       0.32538    0.22893    0.59325    1.000
    N1799    N        0.33803    0.16168    0.54166    1.000
    Si1800   Si       0.32472    0.02123    0.69238    1.000
    N1801    N        0.31102    0.07491    0.63001    1.000
    N1802    N        0.32777    0.08061    0.70159    1.000
    Si1803   Si       0.30744    0.11898    0.69438    1.000
    N1804    N        0.33576    0.02409    0.73599    1.000
    N1805    N        0.29612    0.13467    0.73272    1.000
    N1806    N        0.33618    0.13295    0.66649    1.000
    N1807    N        0.32808    0.21808    0.70988    1.000
    Si1808   Si       0.28478    0.20917    0.70345    1.000
    Si1809   Si       0.33266    0.17479    0.65212    1.000
    N1810    N        0.29285    0.18151    0.67040    1.000
    Si1811   Si       0.34293    0.07806    0.65807    1.000
    N1812    N        0.28662    0.24005    0.57791    1.000
    N1813    N        0.31150    0.09797    0.84168    1.000
    N1814    N        0.32786    0.03709    0.81610    1.000
    Si1815   Si       0.33714    0.07879    0.81329    1.000
    N1816    N        0.33984    0.09181    0.76984    1.000
    Si1817   Si       0.32788    0.13369    0.76258    1.000
    Si1818   Si       0.29852    0.13916    0.83479    1.000
    N1819    N        0.31212    0.15345    0.79717    1.000
    N1820    N        0.32543    0.23343    0.84349    1.000
    Si1821   Si       0.29796    0.21218    0.77830    1.000
    N1822    N        0.30621    0.16455    0.86801    1.000
    N1823    N        0.29309    0.25569    0.77192    1.000
    Si1824   Si       0.34139    0.24272    0.88242    1.000
    N1825    N        0.33142    0.09050    0.96610    1.000
    Si1826   Si       0.29068    0.01906    0.92300    1.000
    N1827    N        0.33180    0.02580    0.93448    1.000
    Si1828   Si       0.31137    0.08024    0.88008    1.000
    N1829    N        0.29918    0.10802    0.90929    1.000
    Si1830   Si       0.32108    0.12504    0.94501    1.000
    N1831    N        0.28896    0.04257    0.88702    1.000
    N1832    N        0.29636    0.14012    0.98108    1.000
    N1833    N        0.33158    0.21284    0.91176    1.000
    N1834    N        0.33552    0.21020    0.98606    1.000
    N1835    N        0.28543    0.24539    0.94967    1.000
    Si1836   Si       0.32880    0.23359    0.95111    1.000
    Si1837   Si       0.33946    0.17339    0.89366    1.000
    Si1838   Si       0.28171    0.23078    0.84659    1.000
    Si1839   Si       0.31092    0.29717    0.07218    1.000
    Si1840   Si       0.31587    0.36474    0.03860    1.000
    N1841    N        0.29284    0.33769    0.06540    1.000
    N1842    N        0.32171    0.29087    0.02823    1.000
    N1843    N        0.29889    0.35161    0.00004    1.000
    Si1844   Si       0.29685    0.43308    0.01576    1.000
    N1845    N        0.32037    0.46589    0.07668    1.000
    N1846    N        0.31824    0.40660    0.04394    1.000
    Si1847   Si       0.29374    0.46089    0.11168    1.000
    Si1848   Si       0.28992    0.50369    0.00381    1.000
    N1849    N        0.30315    0.29797    0.17113    1.000
    Si1850   Si       0.30967    0.34107    0.18032    1.000
    N1851    N        0.32738    0.34519    0.21949    1.000
    N1852    N        0.33616    0.36153    0.14948    1.000
    Si1853   Si       0.30659    0.38112    0.23412    1.000
    N1854    N        0.33266    0.41468    0.22046    1.000
    N1855    N        0.30304    0.49611    0.13625    1.000
    N1856    N        0.29543    0.49535    0.20034    1.000
    N1857    N        0.29986    0.42400    0.13831    1.000
    Si1858   Si       0.33956    0.40409    0.13855    1.000
    Si1859   Si       0.29743    0.29508    0.29115    1.000
    Si1860   Si       0.30662    0.27234    0.36312    1.000
    N1861    N        0.30384    0.26680    0.25828    1.000
    N1862    N        0.32346    0.37934    0.27565    1.000
    N1863    N        0.33680    0.31514    0.29708    1.000
    N1864    N        0.28315    0.27442    0.32629    1.000
    N1865    N        0.33683    0.36327    0.34157    1.000
    N1866    N        0.31047    0.43671    0.43905    1.000
    N1867    N        0.29811    0.45795    0.26046    1.000
    N1868    N        0.31182    0.48191    0.32738    1.000
    Si1869   Si       0.31246    0.39771    0.35782    1.000
    Si1870   Si       0.33219    0.39810    0.43898    1.000
    N1871    N        0.31898    0.26296    0.48017    1.000
    Si1872   Si       0.30998    0.30676    0.47806    1.000
    Si1873   Si       0.30101    0.33984    0.41150    1.000
    N1874    N        0.29608    0.30791    0.38385    1.000
    N1875    N        0.32757    0.32135    0.44167    1.000
    N1876    N        0.32699    0.37365    0.40231    1.000
    N1877    N        0.32652    0.38420    0.47746    1.000
    Si1878   Si       0.33991    0.44431    0.25187    1.000
    Si1879   Si       0.32340    0.36480    0.51483    1.000
    N1880    N        0.30655    0.37767    0.59619    1.000
    N1881    N        0.33420    0.32387    0.50857    1.000
    N1882    N        0.33059    0.26790    0.61220    1.000
    Si1883   Si       0.28787    0.27856    0.60087    1.000
    N1884    N        0.31019    0.48308    0.69060    1.000
    N1885    N        0.31466    0.42423    0.64969    1.000
    N1886    N        0.31272    0.43937    0.56825    1.000
    Si1887   Si       0.33531    0.40448    0.57573    1.000
    N1888    N        0.28161    0.48167    0.62132    1.000
    N1889    N        0.28956    0.33272    0.73838    1.000
    N1890    N        0.30392    0.35554    0.66700    1.000
    N1891    N        0.31252    0.29051    0.68267    1.000
    Si1892   Si       0.33552    0.32921    0.67932    1.000
    Si1893   Si       0.32890    0.31828    0.74365    1.000
    Si1894   Si       0.33781    0.25902    0.69878    1.000
    Si1895   Si       0.29562    0.38632    0.63646    1.000
    Si1896   Si       0.28931    0.50562    0.72362    1.000
    Si1897   Si       0.29104    0.45991    0.65843    1.000
    Si1898   Si       0.33959    0.50318    0.66681    1.000
    N1899    N        0.31352    0.32968    0.85409    1.000
    Si1900   Si       0.31842    0.34299    0.81426    1.000
    Si1901   Si       0.33638    0.26447    0.77534    1.000
    N1902    N        0.33307    0.31013    0.78747    1.000
    N1903    N        0.28655    0.36866    0.79782    1.000
    N1904    N        0.32325    0.42451    0.80413    1.000
    N1905    N        0.30742    0.49025    0.76158    1.000
    N1906    N        0.30481    0.48297    0.83239    1.000
    Si1907   Si       0.32478    0.46709    0.79497    1.000
    Si1908   Si       0.31623    0.46609    0.87100    1.000
    Si1909   Si       0.28422    0.40980    0.79684    1.000
    Si1910   Si       0.29414    0.29911    0.87796    1.000
    N1911    N        0.32843    0.28047    0.89550    1.000
    Si1912   Si       0.33212    0.35815    0.96351    1.000
    N1913    N        0.31033    0.37541    0.93140    1.000
    N1914    N        0.33412    0.31429    0.96421    1.000
    Si1915   Si       0.30391    0.30855    0.99438    1.000
    Si1916   Si       0.32272    0.40553    0.90328    1.000
    N1917    N        0.32774    0.44053    0.98588    1.000
    N1918    N        0.29274    0.43226    0.88740    1.000
    Si1919   Si       0.32564    0.46794    0.94799    1.000
    N1920    N        0.32050    0.49310    0.90621    1.000
    N1921    N        0.29072    0.48809    0.96353    1.000
    Si1922   Si       0.30521    0.59651    0.05382    1.000
    N1923    N        0.31315    0.59656    0.00897    1.000
    N1924    N        0.29927    0.65831    0.18253    1.000
    N1925    N        0.33084    0.51087    0.01730    1.000
    N1926    N        0.31610    0.63560    0.07216    1.000
    Si1927   Si       0.31431    0.63974    0.11661    1.000
    Si1928   Si       0.29383    0.69753    0.01335    1.000
    N1929    N        0.33312    0.68598    0.02301    1.000
    N1930    N        0.30925    0.68256    0.12457    1.000
    N1931    N        0.30660    0.61155    0.23937    1.000
    Si1932   Si       0.29918    0.57179    0.22353    1.000
    N1933    N        0.31347    0.57809    0.18139    1.000
    Si1934   Si       0.33377    0.50987    0.21423    1.000
    N1935    N        0.32793    0.54439    0.24163    1.000
    N1936    N        0.32882    0.74460    0.18610    1.000
    N1937    N        0.32623    0.55100    0.31757    1.000
    Si1938   Si       0.30800    0.52058    0.34479    1.000
    N1939    N        0.32878    0.66160    0.28166    1.000
    Si1940   Si       0.29976    0.74997    0.28562    1.000
    N1941    N        0.32485    0.74393    0.25276    1.000
    N1942    N        0.33746    0.71340    0.35717    1.000
    Si1943   Si       0.28626    0.67145    0.29032    1.000
    Si1944   Si       0.28879    0.62508    0.44071    1.000
    N1945    N        0.33182    0.53527    0.38060    1.000
    N1946    N        0.32627    0.60363    0.43034    1.000
    Si1947   Si       0.32832    0.62934    0.39315    1.000
    N1948    N        0.32468    0.50908    0.45619    1.000
    Si1949   Si       0.33866    0.52901    0.49512    1.000
    Si1950   Si       0.31111    0.74859    0.45265    1.000
    Si1951   Si       0.30431    0.72652    0.37986    1.000
    N1952    N        0.29878    0.72483    0.48700    1.000
    N1953    N        0.31700    0.71793    0.42250    1.000
    N1954    N        0.30568    0.65952    0.46199    1.000
    Si1955   Si       0.33537    0.68237    0.44234    1.000
    N1956    N        0.28673    0.64266    0.39887    1.000
    N1957    N        0.34219    0.60527    0.36149    1.000
    N1958    N        0.30846    0.52941    0.52632    1.000
    N1959    N        0.29531    0.61089    0.52090    1.000
    Si1960   Si       0.31736    0.54944    0.56551    1.000
    Si1961   Si       0.33843    0.60218    0.51764    1.000
    N1962    N        0.31284    0.60161    0.61939    1.000
    N1963    N        0.34103    0.58202    0.55596    1.000
    Si1964   Si       0.34088    0.63498    0.60881    1.000
    Si1965   Si       0.33208    0.69412    0.56997    1.000
    N1966    N        0.30256    0.72420    0.57286    1.000
    N1967    N        0.31798    0.65372    0.57530    1.000
    Si1968   Si       0.33458    0.73537    0.51022    1.000
    Si1969   Si       0.28521    0.63904    0.55147    1.000
    N1970    N        0.28853    0.62070    0.73681    1.000
    Si1971   Si       0.31314    0.58720    0.72471    1.000
    Si1972   Si       0.33310    0.57502    0.64617    1.000
    N1973    N        0.30360    0.54544    0.73368    1.000
    N1974    N        0.32729    0.59337    0.68461    1.000
    N1975    N        0.31568    0.53622    0.65245    1.000
    Si1976   Si       0.32235    0.63744    0.68050    1.000
    N1977    N        0.31245    0.75450    0.70660    1.000
    N1978    N        0.34524    0.65497    0.64754    1.000
    Si1979   Si       0.32316    0.53031    0.76925    1.000
    N1980    N        0.29977    0.54395    0.80296    1.000
    Si1981   Si       0.30070    0.58484    0.81907    1.000
    N1982    N        0.32773    0.66788    0.95611    1.000
    N1983    N        0.32078    0.66211    0.78036    1.000
    N1984    N        0.29553    0.71291    0.82636    1.000
    Si1985   Si       0.33007    0.69700    0.80407    1.000
    Si1986   Si       0.31731    0.75332    0.75027    1.000
    N1987    N        0.31858    0.68091    0.88969    1.000
    Si1988   Si       0.29487    0.58536    0.89736    1.000
    N1989    N        0.32898    0.56324    0.88470    1.000
    N1990    N        0.31345    0.54699    0.95506    1.000
    N1991    N        0.30757    0.62055    0.92054    1.000
    N1992    N        0.32135    0.74773    0.87936    1.000
    Si1993   Si       0.28928    0.57507    0.98037    1.000
    Si1994   Si       0.28473    0.64254    0.95650    1.000
    Si1995   Si       0.33725    0.65156    0.91694    1.000
    N1996    N        0.31835    0.80722    0.09220    1.000
    N1997    N        0.30875    0.79963    0.00505    1.000
    N1998    N        0.31144    0.87295    0.00043    1.000
    Si1999   Si       0.28618    0.83761    0.01137    1.000
    N2000    N        0.31663    0.89302    0.06663    1.000
    N2001    N        0.30061    0.95370    0.01284    1.000
    N2002    N        0.29670    0.99816    0.09857    1.000
    Si2003   Si       0.33311    0.98407    0.01284    1.000
    Si2004   Si       0.33262    0.83512    0.12392    1.000
    N2005    N        0.31213    0.80600    0.23166    1.000
    N2006    N        0.31738    0.87354    0.21232    1.000
    N2007    N        0.30311    0.86139    0.13969    1.000
    Si2008   Si       0.31123    0.76374    0.21927    1.000
    Si2009   Si       0.31834    0.76378    0.14647    1.000
    Si2010   Si       0.33737    0.84146    0.23689    1.000
    Si2011   Si       0.28946    0.86291    0.17977    1.000
    N2012    N        0.33787    0.80299    0.15472    1.000
    Si2013   Si       0.28331    0.90422    0.13047    1.000
    N2014    N        0.32080    0.92789    0.12223    1.000
    Si2015   Si       0.30860    0.96941    0.12964    1.000
    N2016    N        0.29720    0.97727    0.17232    1.000
    Si2017   Si       0.34132    0.88200    0.03258    1.000
    Si2018   Si       0.31020    0.79801    0.34249    1.000
    N2019    N        0.33046    0.86218    0.27426    1.000
    N2020    N        0.32578    0.76901    0.31338    1.000
    N2021    N        0.33740    0.83036    0.34343    1.000
    N2022    N        0.30646    0.96485    0.43194    1.000
    N2023    N        0.29666    0.89089    0.34461    1.000
    Si2024   Si       0.29938    0.97974    0.31725    1.000
    N2025    N        0.32980    0.94965    0.32112    1.000
    Si2026   Si       0.33310    0.91539    0.34891    1.000
    Si2027   Si       0.31156    0.89527    0.25073    1.000
    N2028    N        0.30050    0.76978    0.37461    1.000
    Si2029   Si       0.31028    0.84965    0.42975    1.000
    N2030    N        0.28943    0.83640    0.46830    1.000
    N2031    N        0.28618    0.83111    0.39719    1.000
    N2032    N        0.32681    0.00059    0.38191    1.000
    N2033    N        0.30582    0.89369    0.42843    1.000
    Si2034   Si       0.33211    0.96080    0.46665    1.000
    Si2035   Si       0.29420    0.00413    0.41156    1.000
    Si2036   Si       0.28246    0.92969    0.42296    1.000
    Si2037   Si       0.32004    0.76294    0.57498    1.000
    N2038    N        0.29259    0.84020    0.53715    1.000
    N2039    N        0.33969    0.76835    0.53704    1.000
    Si2040   Si       0.30637    0.87843    0.55211    1.000
    N2041    N        0.29138    0.88713    0.59147    1.000
    N2042    N        0.31016    0.95868    0.50344    1.000
    Si2043   Si       0.29563    0.97469    0.60962    1.000
    N2044    N        0.32115    0.00132    0.55420    1.000
    N2045    N        0.28825    0.90010    0.51422    1.000
    N2046    N        0.33685    0.95768    0.60882    1.000
    N2047    N        0.29915    0.89619    0.65748    1.000
    Si2048   Si       0.31465    0.87204    0.62524    1.000
    N2049    N        0.31465    0.82908    0.63464    1.000
    N2050    N        0.30073    0.92962    0.71813    1.000
    Si2051   Si       0.32155    0.90190    0.74215    1.000
    Si2052   Si       0.31100    0.93538    0.67363    1.000
    N2053    N        0.33221    0.97895    0.68876    1.000
    N2054    N        0.34417    0.76470    0.61136    1.000
    N2055    N        0.28025    0.95355    0.57532    1.000
    N2056    N        0.28385    0.95785    0.64789    1.000
    Si2057   Si       0.28427    0.97862    0.53879    1.000
    Si2058   Si       0.31927    0.83070    0.77279    1.000
    N2059    N        0.30504    0.82486    0.81355    1.000
    Si2060   Si       0.33503    0.83200    0.84347    1.000
    N2061    N        0.33356    0.87530    0.85254    1.000
    N2062    N        0.33422    0.79208    0.76052    1.000
    N2063    N        0.30402    0.86329    0.74740    1.000
    N2064    N        0.30528    0.97570    0.84882    1.000
    N2065    N        0.32107    0.92445    0.78249    1.000
    Si2066   Si       0.29397    0.89213    0.85570    1.000
    Si2067   Si       0.31085    0.99757    0.81023    1.000
    N2068    N        0.31809    0.81291    0.87870    1.000
    Si2069   Si       0.33304    0.77957    0.90533    1.000
    N2070    N        0.31049    0.78053    0.94240    1.000
    Si2071   Si       0.32902    0.86824    0.96072    1.000
    N2072    N        0.30237    0.84764    0.93444    1.000
    Si2073   Si       0.31148    0.76097    0.98350    1.000
    Si2074   Si       0.28590    0.83624    0.89525    1.000
    N2075    N        0.32762    0.91107    0.95726    1.000
    N2076    N        0.28952    0.92084    0.88796    1.000
    Si2077   Si       0.30321    0.93776    0.92750    1.000
    Si2078   Si       0.29293    0.91451    0.99234    1.000
    N2079    N        0.33777    0.96152    0.91104    1.000
    N2080    N        0.38647    0.05608    0.02669    1.000
    Si2081   Si       0.34439    0.05597    0.03814    1.000
    N2082    N        0.34621    0.23586    0.16575    1.000
    N2083    N        0.37270    0.13486    0.07907    1.000
    Si2084   Si       0.36817    0.19272    0.01054    1.000
    N2085    N        0.37884    0.21577    0.04659    1.000
    Si2086   Si       0.38132    0.15193    0.11994    1.000
    N2087    N        0.38111    0.19482    0.12052    1.000
    N2088    N        0.38797    0.11077    0.20584    1.000
    Si2089   Si       0.37072    0.08973    0.16817    1.000
    N2090    N        0.35636    0.12859    0.14615    1.000
    Si2091   Si       0.35033    0.12873    0.22089    1.000
    N2092    N        0.34342    0.06120    0.14811    1.000
    Si2093   Si       0.38462    0.22905    0.14686    1.000
    N2094    N        0.36042    0.22256    0.23010    1.000
    N2095    N        0.39962    0.25261    0.11378    1.000
    N2096    N        0.37891    0.10137    0.31660    1.000
    Si2097   Si       0.36979    0.10701    0.35804    1.000
    N2098    N        0.38955    0.02444    0.34579    1.000
    N2099    N        0.37379    0.01564    0.27326    1.000
    Si2100   Si       0.34578    0.02865    0.35271    1.000
    Si2101   Si       0.34078    0.10666    0.29443    1.000
    N2102    N        0.35728    0.20577    0.46101    1.000
    N2103    N        0.35751    0.13471    0.26428    1.000
    N2104    N        0.38433    0.19357    0.30075    1.000
    Si2105   Si       0.36201    0.18687    0.33557    1.000
    N2106    N        0.37544    0.15139    0.35931    1.000
    Si2107   Si       0.39032    0.16101    0.27363    1.000
    N2108    N        0.36846    0.25872    0.28472    1.000
    Si2109   Si       0.34603    0.25876    0.24837    1.000
    N2110    N        0.38437    0.03903    0.48406    1.000
    N2111    N        0.35601    0.08321    0.44381    1.000
    Si2112   Si       0.35329    0.07096    0.48413    1.000
    Si2113   Si       0.39502    0.00902    0.45404    1.000
    Si2114   Si       0.39488    0.07613    0.42513    1.000
    Si2115   Si       0.35698    0.24906    0.46670    1.000
    N2116    N        0.36545    0.20990    0.37641    1.000
    Si2117   Si       0.39551    0.17855    0.38603    1.000
    Si2118   Si       0.37450    0.25427    0.38570    1.000
    N2119    N        0.39859    0.03198    0.41777    1.000
    Si2120   Si       0.37356    0.09139    0.55598    1.000
    N2121    N        0.36553    0.10212    0.51494    1.000
    N2122    N        0.37637    0.12524    0.58139    1.000
    N2123    N        0.37561    0.00862    0.59887    1.000
    Si2124   Si       0.36127    0.18086    0.57331    1.000
    N2125    N        0.35749    0.22481    0.56462    1.000
    Si2126   Si       0.35706    0.14511    0.50685    1.000
    Si2127   Si       0.38935    0.25443    0.56979    1.000
    N2128    N        0.39687    0.16590    0.50187    1.000
    Si2129   Si       0.38583    0.01412    0.64062    1.000
    N2130    N        0.38244    0.09465    0.66138    1.000
    N2131    N        0.38848    0.06100    0.72160    1.000
    N2132    N        0.35363    0.03555    0.66148    1.000
    Si2133   Si       0.34820    0.06526    0.73662    1.000
    Si2134   Si       0.40135    0.13982    0.74630    1.000
    N2135    N        0.39451    0.21420    0.72325    1.000
    Si2136   Si       0.39406    0.21719    0.67904    1.000
    Si2137   Si       0.38356    0.13795    0.66733    1.000
    N2138    N        0.36808    0.25118    0.66921    1.000
    Si2139   Si       0.35687    0.19935    0.74106    1.000
    N2140    N        0.37465    0.18268    0.66265    1.000
    N2141    N        0.36133    0.15631    0.74913    1.000
    N2142    N        0.37734    0.07567    0.83150    1.000
    N2143    N        0.39128    0.03169    0.78019    1.000
    Si2144   Si       0.37077    0.02294    0.81834    1.000
    Si2145   Si       0.35937    0.22508    0.81819    1.000
    N2146    N        0.38488    0.24629    0.87054    1.000
    N2147    N        0.38984    0.16382    0.98700    1.000
    Si2148   Si       0.38839    0.07340    0.87515    1.000
    N2149    N        0.35150    0.07269    0.89323    1.000
    Si2150   Si       0.35172    0.06412    0.93613    1.000
    N2151    N        0.39445    0.06534    0.94140    1.000
    N2152    N        0.35243    0.15041    0.92869    1.000
    N2153    N        0.37658    0.17696    0.87326    1.000
    Si2154   Si       0.38777    0.16648    0.94495    1.000
    N2155    N        0.34219    0.21836    0.77703    1.000
    N2156    N        0.35683    0.34845    0.03564    1.000
    Si2157   Si       0.36157    0.30489    0.03992    1.000
    Si2158   Si       0.38622    0.37166    0.01595    1.000
    N2159    N        0.35198    0.29347    0.08085    1.000
    Si2160   Si       0.38344    0.29211    0.10943    1.000
    N2161    N        0.39741    0.28834    0.02343    1.000
    N2162    N        0.36273    0.40828    0.10066    1.000
    N2163    N        0.37921    0.46223    0.05744    1.000
    Si2164   Si       0.39485    0.48570    0.09293    1.000
    Si2165   Si       0.34500    0.43019    0.06867    1.000
    Si2166   Si       0.34748    0.49405    0.05407    1.000
    N2167    N        0.38597    0.35874    0.19833    1.000
    N2168    N        0.35697    0.28664    0.21441    1.000
    Si2169   Si       0.37582    0.34531    0.15781    1.000
    N2170    N        0.37078    0.30217    0.14857    1.000
    Si2171   Si       0.37013    0.32717    0.22505    1.000
    Si2172   Si       0.34224    0.27794    0.17590    1.000
    Si2173   Si       0.39338    0.44999    0.15283    1.000
    N2174    N        0.37133    0.47969    0.12949    1.000
    Si2175   Si       0.37157    0.39896    0.20665    1.000
    N2176    N        0.36944    0.41731    0.16695    1.000
    N2177    N        0.35985    0.48112    0.23600    1.000
    Si2178   Si       0.36433    0.28845    0.31639    1.000
    N2179    N        0.38943    0.37520    0.29602    1.000
    N2180    N        0.34890    0.27045    0.35341    1.000
    Si2181   Si       0.34885    0.35838    0.30159    1.000
    N2182    N        0.39735    0.31333    0.32589    1.000
    N2183    N        0.37575    0.48747    0.34539    1.000
    N2184    N        0.35946    0.44047    0.29049    1.000
    Si2185   Si       0.34833    0.45792    0.32827    1.000
    Si2186   Si       0.39478    0.41674    0.28172    1.000
    N2187    N        0.34569    0.42641    0.35844    1.000
    Si2188   Si       0.39529    0.50372    0.25128    1.000
    N2189    N        0.37131    0.41386    0.43140    1.000
    Si2190   Si       0.36056    0.35682    0.37638    1.000
    N2191    N        0.37802    0.32136    0.39290    1.000
    Si2192   Si       0.36836    0.30909    0.43331    1.000
    N2193    N        0.36735    0.26671    0.42650    1.000
    N2194    N        0.40151    0.32399    0.45816    1.000
    N2195    N        0.39466    0.38293    0.37404    1.000
    Si2196   Si       0.39591    0.42703    0.46398    1.000
    Si2197   Si       0.39527    0.48321    0.38438    1.000
    N2198    N        0.36449    0.48085    0.41499    1.000
    Si2199   Si       0.37800    0.41931    0.38902    1.000
    N2200    N        0.36708    0.45704    0.48243    1.000
    Si2201   Si       0.34069    0.46674    0.44977    1.000
    Si2202   Si       0.37027    0.30384    0.51687    1.000
    N2203    N        0.37629    0.29338    0.55878    1.000
    N2204    N        0.38368    0.26960    0.49433    1.000
    N2205    N        0.39644    0.39539    0.74672    1.000
    N2206    N        0.39898    0.47134    0.73179    1.000
    Si2207   Si       0.39376    0.38118    0.52493    1.000
    N2208    N        0.35237    0.38475    0.54176    1.000
    N2209    N        0.36793    0.41439    0.60296    1.000
    Si2210   Si       0.38832    0.47323    0.51442    1.000
    N2211    N        0.38487    0.47530    0.55845    1.000
    Si2212   Si       0.37069    0.49338    0.59611    1.000
    Si2213   Si       0.39172    0.36149    0.71743    1.000
    N2214    N        0.36887    0.31657    0.65154    1.000
    Si2215   Si       0.36779    0.27686    0.63442    1.000
    N2216    N        0.35202    0.34343    0.71749    1.000
    N2217    N        0.39734    0.37231    0.67500    1.000
    N2218    N        0.34722    0.27839    0.73511    1.000
    N2219    N        0.38242    0.43733    0.67203    1.000
    Si2220   Si       0.35344    0.43475    0.63950    1.000
    N2221    N        0.35202    0.47795    0.63201    1.000
    Si2222   Si       0.39698    0.47622    0.68703    1.000
    N2223    N        0.37920    0.31594    0.84514    1.000
    N2224    N        0.35392    0.36778    0.80760    1.000
    Si2225   Si       0.37616    0.31236    0.80183    1.000
    N2226    N        0.37544    0.26522    0.80233    1.000
    Si2227   Si       0.38952    0.37819    0.78664    1.000
    N2228    N        0.36535    0.48023    0.79660    1.000
    Si2229   Si       0.37750    0.48425    0.83729    1.000
    Si2230   Si       0.35427    0.40529    0.83165    1.000
    Si2231   Si       0.38956    0.49900    0.76542    1.000
    N2232    N        0.35736    0.45156    0.86112    1.000
    N2233    N        0.39506    0.41138    0.81427    1.000
    Si2234   Si       0.35473    0.34177    0.87210    1.000
    N2235    N        0.36772    0.25938    0.94458    1.000
    Si2236   Si       0.35178    0.29554    0.92853    1.000
    N2237    N        0.37360    0.32928    0.90920    1.000
    N2238    N        0.36502    0.38311    0.97706    1.000
    Si2239   Si       0.39844    0.50302    0.94071    1.000
    Si2240   Si       0.38174    0.44109    0.89771    1.000
    N2241    N        0.34487    0.38608    0.87086    1.000
    Si2242   Si       0.36401    0.42503    0.97065    1.000
    N2243    N        0.36023    0.49497    0.96096    1.000
    N2244    N        0.35099    0.43401    0.92776    1.000
    N2245    N        0.40063    0.44327    0.98188    1.000
    Si2246   Si       0.36493    0.55875    0.08905    1.000
    N2247    N        0.37324    0.51930    0.07763    1.000
    Si2248   Si       0.35590    0.59209    0.01789    1.000
    N2249    N        0.39573    0.58917    0.09972    1.000
    N2250    N        0.37202    0.63060    0.02809    1.000
    N2251    N        0.36871    0.67819    0.08864    1.000
    Si2252   Si       0.34722    0.65840    0.05254    1.000
    Si2253   Si       0.37688    0.75043    0.01100    1.000
    Si2254   Si       0.34870    0.70159    0.11861    1.000
    Si2255   Si       0.38773    0.61405    0.13496    1.000
    N2256    N        0.35884    0.52414    0.17990    1.000
    N2257    N        0.39176    0.58495    0.16709    1.000
    Si2258   Si       0.35372    0.56526    0.16825    1.000
    N2259    N        0.34702    0.62993    0.14253    1.000
    N2260    N        0.34341    0.55127    0.12652    1.000
    Si2261   Si       0.34506    0.51010    0.13874    1.000
    Si2262   Si       0.39512    0.66898    0.22986    1.000
    N2263    N        0.36026    0.64517    0.21532    1.000
    Si2264   Si       0.36715    0.72705    0.18554    1.000
    N2265    N        0.36241    0.69332    0.15896    1.000
    N2266    N        0.38019    0.70957    0.22233    1.000
    N2267    N        0.34401    0.57493    0.05614    1.000
    N2268    N        0.34137    0.74367    0.11588    1.000
    Si2269   Si       0.34332    0.65725    0.17485    1.000
    N2270    N        0.36312    0.59583    0.27410    1.000
    N2271    N        0.38228    0.52554    0.28459    1.000
    N2272    N        0.39014    0.55690    0.34414    1.000
    Si2273   Si       0.34909    0.56506    0.35371    1.000
    Si2274   Si       0.34938    0.55443    0.27961    1.000
    Si2275   Si       0.39747    0.51886    0.32480    1.000
    Si2276   Si       0.34343    0.63138    0.25244    1.000
    Si2277   Si       0.36642    0.69078    0.37761    1.000
    Si2278   Si       0.35549    0.74162    0.33046    1.000
    Si2279   Si       0.36663    0.67346    0.30200    1.000
    N2280    N        0.38029    0.66721    0.34146    1.000
    N2281    N        0.36926    0.71658    0.29455    1.000
    Si2282   Si       0.36650    0.73337    0.25628    1.000
    N2283    N        0.39081    0.65485    0.27073    1.000
    N2284    N        0.37764    0.54805    0.43113    1.000
    Si2285   Si       0.36152    0.58484    0.44816    1.000
    Si2286   Si       0.34615    0.52162    0.41935    1.000
    N2287    N        0.34579    0.57149    0.48708    1.000
    N2288    N        0.39738    0.60836    0.45184    1.000
    N2289    N        0.39059    0.71853    0.40131    1.000
    N2290    N        0.35185    0.66258    0.40665    1.000
    N2291    N        0.37144    0.69099    0.46757    1.000
    Si2292   Si       0.40214    0.75893    0.38832    1.000
    N2293    N        0.37802    0.51529    0.50567    1.000
    N2294    N        0.34153    0.52180    0.58465    1.000
    N2295    N        0.37067    0.63043    0.51068    1.000
    N2296    N        0.38269    0.63187    0.59726    1.000
    Si2297   Si       0.37643    0.67359    0.50999    1.000
    N2298    N        0.36760    0.70206    0.59427    1.000
    N2299    N        0.34547    0.69774    0.52895    1.000
    Si2300   Si       0.39861    0.67034    0.58610    1.000
    N2301    N        0.37655    0.57188    0.63894    1.000
    N2302    N        0.37838    0.51533    0.68106    1.000
    Si2303   Si       0.39981    0.55376    0.67461    1.000
    N2304    N        0.36279    0.72286    0.66359    1.000
    Si2305   Si       0.36716    0.68054    0.67452    1.000
    N2306    N        0.34718    0.66003    0.71036    1.000
    N2307    N        0.37758    0.75830    0.72482    1.000
    Si2308   Si       0.37431    0.73405    0.62251    1.000
    Si2309   Si       0.35279    0.75560    0.68977    1.000
    N2310    N        0.36892    0.52157    0.85671    1.000
    Si2311   Si       0.37897    0.61368    0.80502    1.000
    Si2312   Si       0.36047    0.56759    0.85441    1.000
    N2313    N        0.36435    0.53292    0.75861    1.000
    Si2314   Si       0.38208    0.57181    0.74871    1.000
    N2315    N        0.34774    0.59906    0.74870    1.000
    N2316    N        0.34467    0.59067    0.82092    1.000
    N2317    N        0.39339    0.63700    0.83889    1.000
    N2318    N        0.38305    0.64706    0.77597    1.000
    N2319    N        0.36035    0.69921    0.83351    1.000
    Si2320   Si       0.38580    0.73204    0.75773    1.000
    Si2321   Si       0.34909    0.64330    0.75072    1.000
    Si2322   Si       0.35178    0.69105    0.98294    1.000
    N2323    N        0.34409    0.72620    0.77244    1.000
    N2324    N        0.39591    0.58432    0.87548    1.000
    Si2325   Si       0.34823    0.52691    0.89624    1.000
    N2326    N        0.38164    0.53790    0.92128    1.000
    N2327    N        0.36897    0.56543    0.98733    1.000
    Si2328   Si       0.34729    0.53055    0.98003    1.000
    Si2329   Si       0.34376    0.71215    0.87323    1.000
    Si2330   Si       0.40180    0.68234    0.92550    1.000
    N2331    N        0.39366    0.68823    0.96864    1.000
    N2332    N        0.38222    0.71210    0.89897    1.000
    N2333    N        0.34620    0.73433    0.98566    1.000
    N2334    N        0.37912    0.64612    0.91045    1.000
    Si2335   Si       0.40211    0.62492    0.87963    1.000
    N2336    N        0.38661    0.79030    0.11167    1.000
    Si2337   Si       0.35149    0.77578    0.08808    1.000
    N2338    N        0.35601    0.84299    0.03697    1.000
    N2339    N        0.35861    0.76835    0.04751    1.000
    Si2340   Si       0.34885    0.80371    0.02366    1.000
    N2341    N        0.36389    0.86264    0.11308    1.000
    Si2342   Si       0.37321    0.93120    0.21860    1.000
    N2343    N        0.38297    0.92295    0.08268    1.000
    Si2344   Si       0.38294    0.94220    0.04291    1.000
    N2345    N        0.36224    0.91619    0.01527    1.000
    N2346    N        0.35906    0.97962    0.04681    1.000
    Si2347   Si       0.36381    0.00294    0.08484    1.000
    Si2348   Si       0.34648    0.90204    0.09877    1.000
    Si2349   Si       0.38239    0.79611    0.15641    1.000
    N2350    N        0.37987    0.83467    0.23334    1.000
    N2351    N        0.39975    0.83693    0.16467    1.000
    N2352    N        0.39506    0.75878    0.17258    1.000
    N2353    N        0.40099    0.96003    0.23857    1.000
    N2354    N        0.35327    0.00453    0.20042    1.000
    Si2355   Si       0.37219    0.98700    0.16350    1.000
    N2356    N        0.37870    0.94617    0.17711    1.000
    N2357    N        0.39487    0.89618    0.20280    1.000
    Si2358   Si       0.38231    0.99944    0.23386    1.000
    N2359    N        0.35045    0.99405    0.12760    1.000
    N2360    N        0.38036    0.76917    0.35271    1.000
    Si2361   Si       0.37787    0.81141    0.34276    1.000
    N2362    N        0.38107    0.82383    0.30061    1.000
    N2363    N        0.39131    0.76787    0.25165    1.000
    Si2364   Si       0.34877    0.85623    0.31160    1.000
    Si2365   Si       0.39619    0.80894    0.26472    1.000
    N2366    N        0.36527    0.89597    0.32530    1.000
    Si2367   Si       0.36015    0.93081    0.29530    1.000
    N2368    N        0.34473    0.92608    0.25365    1.000
    Si2369   Si       0.35099    0.96986    0.40332    1.000
    N2370    N        0.39108    0.80681    0.48642    1.000
    N2371    N        0.35507    0.85405    0.42631    1.000
    N2372    N        0.38928    0.78978    0.41681    1.000
    Si2373   Si       0.38475    0.77599    0.45779    1.000
    Si2374   Si       0.39112    0.83404    0.40974    1.000
    N2375    N        0.34859    0.75940    0.47188    1.000
    N2376    N        0.36462    0.97979    0.44542    1.000
    N2377    N        0.39170    0.97243    0.38681    1.000
    Si2378   Si       0.35024    0.90139    0.42375    1.000
    N2379    N        0.34783    0.92026    0.47387    1.000
    Si2380   Si       0.38949    0.91116    0.47234    1.000
    N2381    N        0.39107    0.91472    0.42924    1.000
    N2382    N        0.34400    0.92777    0.38764    1.000
    N2383    N        0.37333    0.82791    0.54398    1.000
    Si2384   Si       0.38163    0.87084    0.53737    1.000
    Si2385   Si       0.36156    0.79854    0.51672    1.000
    N2386    N        0.38214    0.82400    0.61236    1.000
    N2387    N        0.38610    0.97289    0.73171    1.000
    N2388    N        0.39740    0.87564    0.49566    1.000
    N2389    N        0.36713    0.94949    0.54603    1.000
    Si2390   Si       0.35478    0.98047    0.57347    1.000
    N2391    N        0.34512    0.89008    0.53909    1.000
    N2392    N        0.35296    0.88771    0.61673    1.000
    Si2393   Si       0.38819    0.86572    0.62286    1.000
    Si2394   Si       0.34901    0.80155    0.63108    1.000
    Si2395   Si       0.39251    0.82202    0.68466    1.000
    N2396    N        0.36300    0.79384    0.67106    1.000
    N2397    N        0.38682    0.82613    0.72665    1.000
    N2398    N        0.39097    0.86098    0.66530    1.000
    Si2399   Si       0.33804    0.92749    0.51865    1.000
    N2400    N        0.35814    0.92713    0.66893    1.000
    Si2401   Si       0.37084    0.96194    0.69335    1.000
    N2402    N        0.36295    0.89229    0.72737    1.000
    N2403    N        0.39425    0.97646    0.65980    1.000
    Si2404   Si       0.38230    0.89784    0.68893    1.000
    Si2405   Si       0.36295    0.93074    0.62469    1.000
    Si2406   Si       0.40278    0.82604    0.57562    1.000
    N2407    N        0.36048    0.84557    0.78297    1.000
    N2408    N        0.37697    0.82151    0.84258    1.000
    Si2409   Si       0.37689    0.79204    0.75191    1.000
    Si2410   Si       0.38419    0.86271    0.74961    1.000
    Si2411   Si       0.39554    0.84508    0.81073    1.000
    N2412    N        0.39943    0.76780    0.78147    1.000
    Si2413   Si       0.36619    0.00304    0.75826    1.000
    Si2414   Si       0.37109    0.89407    0.85696    1.000
    N2415    N        0.35922    0.93507    0.84438    1.000
    Si2416   Si       0.35691    0.94032    0.80057    1.000
    N2417    N        0.37337    0.99966    0.85548    1.000
    N2418    N        0.34961    0.98390    0.79395    1.000
    N2419    N        0.39491    0.93012    0.78390    1.000
    Si2420   Si       0.34584    0.96897    0.86729    1.000
    Si2421   Si       0.39642    0.79880    0.87309    1.000
    N2422    N        0.36874    0.85283    0.95268    1.000
    N2423    N        0.37441    0.79382    0.91003    1.000
    Si2424   Si       0.38237    0.81105    0.95187    1.000
    N2425    N        0.37442    0.79133    0.98972    1.000
    N2426    N        0.39043    0.87995    0.89215    1.000
    Si2427   Si       0.39294    0.88260    0.93419    1.000
    N2428    N        0.35709    0.97405    0.97553    1.000
    Si2429   Si       0.36210    0.93142    0.97596    1.000
    Si2430   Si       0.35536    0.99133    0.93655    1.000
    N2431    N        0.39381    0.92275    0.94927    1.000
    N2432    N        0.41890    0.08576    0.08501    1.000
    Si2433   Si       0.41622    0.05173    0.05886    1.000
    Si2434   Si       0.41572    0.12764    0.07344    1.000
    N2435    N        0.40520    0.01655    0.08403    1.000
    N2436    N        0.45668    0.04356    0.04282    1.000
    N2437    N        0.43150    0.13868    0.03530    1.000
    N2438    N        0.43762    0.23679    0.05939    1.000
    Si2439   Si       0.40771    0.24691    0.02790    1.000
    N2440    N        0.42442    0.14664    0.11187    1.000
    Si2441   Si       0.39755    0.21849    0.08535    1.000
    N2442    N        0.40499    0.17137    0.23177    1.000
    Si2443   Si       0.42337    0.03840    0.18087    1.000
    N2444    N        0.41339    0.02749    0.22131    1.000
    N2445    N        0.40872    0.07081    0.15624    1.000
    Si2446   Si       0.43683    0.07861    0.12590    1.000
    Si2447   Si       0.41758    0.13042    0.22848    1.000
    N2448    N        0.41220    0.22775    0.17997    1.000
    Si2449   Si       0.40252    0.21202    0.22106    1.000
    Si2450   Si       0.44603    0.25509    0.17705    1.000
    Si2451   Si       0.41776    0.09890    0.30339    1.000
    N2452    N        0.42197    0.05809    0.28604    1.000
    Si2453   Si       0.43834    0.03110    0.25490    1.000
    N2454    N        0.44804    0.10019    0.33445    1.000
    Si2455   Si       0.40439    0.02120    0.30415    1.000
    N2456    N        0.42534    0.12996    0.27417    1.000
    Si2457   Si       0.44166    0.23474    0.35684    1.000
    N2458    N        0.43157    0.24776    0.31695    1.000
    N2459    N        0.42506    0.23173    0.25149    1.000
    N2460    N        0.43105    0.19428    0.36730    1.000
    Si2461   Si       0.40245    0.23296    0.28898    1.000
    Si2462   Si       0.44328    0.09809    0.37717    1.000
    N2463    N        0.42105    0.09895    0.44981    1.000
    Si2464   Si       0.45182    0.08783    0.48061    1.000
    N2465    N        0.40115    0.09669    0.38797    1.000
    Si2466   Si       0.43351    0.13843    0.43745    1.000
    N2467    N        0.45312    0.13376    0.40055    1.000
    Si2468   Si       0.41097    0.01096    0.38031    1.000
    N2469    N        0.45162    0.16279    0.46894    1.000
    N2470    N        0.42547    0.22333    0.47353    1.000
    N2471    N        0.40265    0.16813    0.42847    1.000
    Si2472   Si       0.39744    0.19115    0.46605    1.000
    Si2473   Si       0.44407    0.08501    0.54946    1.000
    N2474    N        0.44345    0.11461    0.58408    1.000
    Si2475   Si       0.40683    0.02193    0.57418    1.000
    Si2476   Si       0.42026    0.02729    0.50719    1.000
    N2477    N        0.44473    0.11352    0.51557    1.000
    N2478    N        0.40673    0.06182    0.55616    1.000
    N2479    N        0.44181    0.00871    0.59758    1.000
    N2480    N        0.45400    0.05452    0.51003    1.000
    Si2481   Si       0.41348    0.14088    0.59771    1.000
    Si2482   Si       0.43837    0.15590    0.50882    1.000
    Si2483   Si       0.43801    0.20274    0.56299    1.000
    N2484    N        0.42152    0.24005    0.54238    1.000
    Si2485   Si       0.42295    0.25625    0.50168    1.000
    N2486    N        0.40478    0.18055    0.58136    1.000
    Si2487   Si       0.44139    0.24846    0.62398    1.000
    N2488    N        0.43330    0.23353    0.66300    1.000
    N2489    N        0.44694    0.08471    0.69216    1.000
    N2490    N        0.42144    0.03651    0.65630    1.000
    Si2491   Si       0.40838    0.06885    0.68327    1.000
    Si2492   Si       0.44157    0.12595    0.67729    1.000
    Si2493   Si       0.45812    0.01367    0.64821    1.000
    Si2494   Si       0.43122    0.21094    0.74543    1.000
    N2495    N        0.42154    0.14110    0.63984    1.000
    N2496    N        0.41119    0.13781    0.70417    1.000
    N2497    N        0.44359    0.06808    0.81848    1.000
    Si2498   Si       0.44619    0.04057    0.84980    1.000
    Si2499   Si       0.41533    0.06005    0.75689    1.000
    Si2500   Si       0.41188    0.09785    0.81228    1.000
    N2501    N        0.41067    0.10294    0.76996    1.000
    N2502    N        0.45712    0.04919    0.75035    1.000
    N2503    N        0.41307    0.13844    0.82585    1.000
    Si2504   Si       0.42451    0.17585    0.80783    1.000
    N2505    N        0.42307    0.17235    0.76453    1.000
    N2506    N        0.43902    0.24713    0.76592    1.000
    Si2507   Si       0.41636    0.25192    0.80019    1.000
    Si2508   Si       0.40600    0.14523    0.86796    1.000
    N2509    N        0.41716    0.04084    0.88178    1.000
    Si2510   Si       0.42569    0.03291    0.93054    1.000
    Si2511   Si       0.42387    0.10008    0.93359    1.000
    N2512    N        0.43103    0.03071    0.97784    1.000
    N2513    N        0.42395    0.09948    0.98193    1.000
    Si2514   Si       0.40396    0.06210    0.98638    1.000
    N2515    N        0.40687    0.10900    0.89135    1.000
    N2516    N        0.45670    0.07413    0.92480    1.000
    N2517    N        0.42603    0.14396    0.93970    1.000
    N2518    N        0.45065    0.23082    0.87535    1.000
    Si2519   Si       0.41054    0.20951    0.87824    1.000
    N2520    N        0.44137    0.17117    0.87812    1.000
    N2521    N        0.44966    0.25348    0.94489    1.000
    N2522    N        0.40426    0.22789    0.99032    1.000
    N2523    N        0.40680    0.20107    0.92452    1.000
    Si2524   Si       0.44750    0.17725    0.92066    1.000
    Si2525   Si       0.40665    0.23909    0.94902    1.000
    Si2526   Si       0.42731    0.14132    0.98963    1.000
    N2527    N        0.40242    0.21231    0.81516    1.000
    N2528    N        0.42406    0.35028    0.01768    1.000
    N2529    N        0.42070    0.30705    0.09451    1.000
    Si2530   Si       0.43809    0.34318    0.10926    1.000
    Si2531   Si       0.44123    0.26803    0.09452    1.000
    Si2532   Si       0.42683    0.31112    0.00167    1.000
    N2533    N        0.44072    0.37745    0.08207    1.000
    Si2534   Si       0.44110    0.38400    0.03900    1.000
    Si2535   Si       0.40539    0.39884    0.10421    1.000
    N2536    N        0.44231    0.47420    0.02848    1.000
    N2537    N        0.43676    0.49314    0.09460    1.000
    Si2538   Si       0.40551    0.44919    0.02552    1.000
    N2539    N        0.40220    0.40654    0.03577    1.000
    N2540    N        0.43415    0.29348    0.19651    1.000
    Si2541   Si       0.43812    0.31473    0.23230    1.000
    N2542    N        0.40510    0.36213    0.12989    1.000
    N2543    N        0.39565    0.41715    0.23661    1.000
    N2544    N        0.42221    0.43302    0.12594    1.000
    Si2545   Si       0.42533    0.44766    0.22268    1.000
    N2546    N        0.41059    0.46984    0.18686    1.000
    Si2547   Si       0.45603    0.50532    0.13156    1.000
    Si2548   Si       0.41306    0.33912    0.29260    1.000
    N2549    N        0.45218    0.35104    0.30585    1.000
    Si2550   Si       0.41086    0.30641    0.36766    1.000
    N2551    N        0.40157    0.32086    0.25457    1.000
    N2552    N        0.43060    0.42954    0.30288    1.000
    Si2553   Si       0.44705    0.46859    0.29344    1.000
    N2554    N        0.42546    0.47460    0.25665    1.000
    N2555    N        0.43402    0.49793    0.32313    1.000
    N2556    N        0.44301    0.33329    0.37281    1.000
    N2557    N        0.41685    0.26476    0.37954    1.000
    Si2558   Si       0.43664    0.37476    0.38181    1.000
    Si2559   Si       0.42851    0.32497    0.49054    1.000
    N2560    N        0.46196    0.34612    0.47325    1.000
    N2561    N        0.40968    0.39325    0.48599    1.000
    N2562    N        0.41244    0.44421    0.38490    1.000
    Si2563   Si       0.44670    0.43522    0.41303    1.000
    Si2564   Si       0.44897    0.38754    0.46554    1.000
    Si2565   Si       0.45925    0.45829    0.48339    1.000
    N2566    N        0.44509    0.39290    0.42162    1.000
    N2567    N        0.43443    0.45120    0.45002    1.000
    Si2568   Si       0.45527    0.39483    0.30967    1.000
    N2569    N        0.44793    0.31085    0.57597    1.000
    N2570    N        0.44972    0.29039    0.50806    1.000
    Si2571   Si       0.40689    0.32483    0.56782    1.000
    N2572    N        0.40285    0.33620    0.52532    1.000
    Si2573   Si       0.40552    0.39409    0.59678    1.000
    N2574    N        0.41459    0.40106    0.55512    1.000
    N2575    N        0.42974    0.45473    0.51552    1.000
    Si2576   Si       0.42440    0.49253    0.56387    1.000
    Si2577   Si       0.44609    0.43295    0.55185    1.000
    N2578    N        0.41181    0.50491    0.60515    1.000
    Si2579   Si       0.45729    0.31816    0.69448    1.000
    N2580    N        0.44061    0.32316    0.65465    1.000
    N2581    N        0.43001    0.33831    0.72431    1.000
    N2582    N        0.43399    0.40424    0.62618    1.000
    N2583    N        0.43482    0.47174    0.66570    1.000
    N2584    N        0.44464    0.41672    0.70405    1.000
    Si2585   Si       0.41972    0.43169    0.73933    1.000
    Si2586   Si       0.41611    0.41073    0.66943    1.000
    N2587    N        0.45926    0.46896    0.57007    1.000
    N2588    N        0.40232    0.34981    0.60300    1.000
    N2589    N        0.40136    0.26410    0.61066    1.000
    Si2590   Si       0.40144    0.34136    0.64571    1.000
    N2591    N        0.43231    0.28077    0.82705    1.000
    Si2592   Si       0.44720    0.34210    0.76500    1.000
    N2593    N        0.41015    0.33897    0.78696    1.000
    Si2594   Si       0.40464    0.28347    0.86000    1.000
    Si2595   Si       0.45187    0.49934    0.99211    1.000
    Si2596   Si       0.44525    0.48103    0.80253    1.000
    Si2597   Si       0.42321    0.42946    0.84019    1.000
    N2598    N        0.42098    0.47342    0.84101    1.000
    N2599    N        0.44360    0.44920    0.77365    1.000
    N2600    N        0.42480    0.32249    0.95978    1.000
    Si2601   Si       0.41622    0.32348    0.91651    1.000
    N2602    N        0.43135    0.29184    0.89372    1.000
    N2603    N        0.44759    0.35333    0.90966    1.000
    Si2604   Si       0.45090    0.35630    0.95689    1.000
    N2605    N        0.41471    0.41762    0.88231    1.000
    N2606    N        0.43934    0.39754    0.94925    1.000
    Si2607   Si       0.44305    0.42974    0.97995    1.000
    Si2608   Si       0.43568    0.49237    0.87940    1.000
    N2609    N        0.40621    0.47658    0.90909    1.000
    Si2610   Si       0.44466    0.39717    0.90691    1.000
    Si2611   Si       0.43842    0.59368    0.08699    1.000
    N2612    N        0.42559    0.58463    0.01405    1.000
    Si2613   Si       0.41590    0.62577    0.02879    1.000
    N2614    N        0.43016    0.63579    0.06969    1.000
    N2615    N        0.43385    0.70555    0.08889    1.000
    Si2616   Si       0.44128    0.73608    0.05707    1.000
    N2617    N        0.41431    0.72962    0.02332    1.000
    Si2618   Si       0.41250    0.66679    0.09368    1.000
    N2619    N        0.43673    0.65685    0.00634    1.000
    Si2620   Si       0.43873    0.56370    0.23311    1.000
    N2621    N        0.42513    0.52662    0.15390    1.000
    Si2622   Si       0.43280    0.56897    0.15986    1.000
    N2623    N        0.41097    0.53189    0.22297    1.000
    N2624    N        0.45324    0.59377    0.12884    1.000
    N2625    N        0.45700    0.57096    0.19508    1.000
    Si2626   Si       0.40191    0.51184    0.18649    1.000
    Si2627   Si       0.45815    0.63529    0.13985    1.000
    N2628    N        0.45202    0.71519    0.16259    1.000
    N2629    N        0.41672    0.64667    0.13347    1.000
    N2630    N        0.43589    0.67083    0.22435    1.000
    Si2631   Si       0.42371    0.58301    0.34768    1.000
    N2632    N        0.41712    0.61275    0.31715    1.000
    Si2633   Si       0.45463    0.51700    0.35653    1.000
    Si2634   Si       0.40211    0.61348    0.27852    1.000
    N2635    N        0.45861    0.55788    0.34029    1.000
    N2636    N        0.41418    0.74445    0.45986    1.000
    N2637    N        0.45014    0.67261    0.34309    1.000
    Si2638   Si       0.41754    0.64451    0.34767    1.000
    N2639    N        0.43744    0.52121    0.46331    1.000
    N2640    N        0.44741    0.56944    0.42255    1.000
    Si2641   Si       0.42046    0.53596    0.42574    1.000
    N2642    N        0.42080    0.61308    0.37871    1.000
    Si2643   Si       0.42797    0.60956    0.42093    1.000
    N2644    N        0.42817    0.51014    0.39248    1.000
    Si2645   Si       0.40848    0.61647    0.49436    1.000
    Si2646   Si       0.40156    0.70806    0.44267    1.000
    N2647    N        0.44419    0.75381    0.38421    1.000
    Si2648   Si       0.45396    0.74750    0.47591    1.000
    N2649    N        0.44125    0.69238    0.43636    1.000
    N2650    N        0.43581    0.65075    0.49513    1.000
    N2651    N        0.43005    0.60804    0.24514    1.000
    N2652    N        0.43327    0.52397    0.53856    1.000
    Si2653   Si       0.44500    0.56636    0.54621    1.000
    N2654    N        0.42467    0.58198    0.57963    1.000
    N2655    N        0.42460    0.57909    0.50975    1.000
    Si2656   Si       0.41667    0.53664    0.49849    1.000
    Si2657   Si       0.40232    0.59654    0.61214    1.000
    N2658    N        0.43497    0.67732    0.60849    1.000
    Si2659   Si       0.44595    0.67753    0.52629    1.000
    N2660    N        0.40786    0.68017    0.54367    1.000
    Si2661   Si       0.43990    0.65537    0.64663    1.000
    N2662    N        0.41209    0.75620    0.62136    1.000
    N2663    N        0.43824    0.54617    0.65790    1.000
    Si2664   Si       0.44498    0.58921    0.72390    1.000
    N2665    N        0.43538    0.61196    0.63963    1.000
    N2666    N        0.40488    0.57461    0.71223    1.000
    Si2667   Si       0.43966    0.50656    0.63684    1.000
    N2668    N        0.41131    0.67388    0.67505    1.000
    N2669    N        0.44108    0.63257    0.73498    1.000
    N2670    N        0.40649    0.69934    0.73662    1.000
    N2671    N        0.44372    0.73662    0.68211    1.000
    Si2672   Si       0.43353    0.70077    0.70270    1.000
    N2673    N        0.45899    0.73721    0.57103    1.000
    Si2674   Si       0.43814    0.55669    0.79009    1.000
    N2675    N        0.42635    0.51507    0.78385    1.000
    N2676    N        0.40311    0.58205    0.78532    1.000
    Si2677   Si       0.42083    0.66312    0.75817    1.000
    N2678    N        0.43281    0.67815    0.79751    1.000
    N2679    N        0.42909    0.69647    0.85549    1.000
    Si2680   Si       0.41220    0.56508    0.97652    1.000
    N2681    N        0.44446    0.53319    0.89116    1.000
    N2682    N        0.42773    0.58712    0.94092    1.000
    N2683    N        0.42010    0.52253    0.97448    1.000
    Si2684   Si       0.41528    0.56163    0.90539    1.000
    N2685    N        0.44349    0.69103    0.91437    1.000
    N2686    N        0.44327    0.62980    0.89012    1.000
    Si2687   Si       0.41772    0.73096    0.88240    1.000
    Si2688   Si       0.42590    0.69669    0.99731    1.000
    N2689    N        0.43922    0.75394    0.91553    1.000
    Si2690   Si       0.45584    0.67034    0.87943    1.000
    N2691    N        0.46481    0.55890    0.82390    1.000
    Si2692   Si       0.45942    0.70122    0.82262    1.000
    Si2693   Si       0.46052    0.61158    0.92586    1.000
    Si2694   Si       0.39857    0.67788    0.82771    1.000
    Si2695   Si       0.42808    0.79778    0.10214    1.000
    N2696    N        0.42879    0.84242    0.09815    1.000
    N2697    N        0.44662    0.77876    0.06716    1.000
    N2698    N        0.43198    0.86872    0.00645    1.000
    N2699    N        0.42326    0.93921    0.02224    1.000
    Si2700   Si       0.42536    0.92363    0.09954    1.000
    N2701    N        0.44230    0.96249    0.10623    1.000
    Si2702   Si       0.44589    0.90173    0.02911    1.000
    N2703    N        0.45173    0.90241    0.07226    1.000
    Si2704   Si       0.42970    0.00364    0.11660    1.000
    N2705    N        0.44629    0.85642    0.21491    1.000
    N2706    N        0.45100    0.77691    0.20620    1.000
    N2707    N        0.44948    0.78879    0.13843    1.000
    Si2708   Si       0.40315    0.85481    0.20458    1.000
    Si2709   Si       0.40374    0.86195    0.12835    1.000
    N2710    N        0.42039    0.90124    0.13551    1.000
    N2711    N        0.45605    0.92523    0.18946    1.000
    N2712    N        0.41140    0.00459    0.15438    1.000
    Si2713   Si       0.41602    0.92326    0.17347    1.000
    Si2714   Si       0.43990    0.75757    0.17001    1.000
    Si2715   Si       0.45512    0.95190    0.99689    1.000
    Si2716   Si       0.44244    0.84534    0.35238    1.000
    N2717    N        0.44035    0.80575    0.26113    1.000
    N2718    N        0.43282    0.87841    0.32433    1.000
    Si2719   Si       0.43459    0.76371    0.24532    1.000
    Si2720   Si       0.42704    0.95381    0.27184    1.000
    N2721    N        0.43838    0.99514    0.28329    1.000
    N2722    N        0.45239    0.91737    0.26384    1.000
    Si2723   Si       0.40634    0.91086    0.33499    1.000
    N2724    N        0.43140    0.92309    0.36894    1.000
    N2725    N        0.40328    0.83506    0.36845    1.000
    Si2726   Si       0.41638    0.84023    0.47742    1.000
    N2727    N        0.42474    0.84652    0.43566    1.000
    Si2728   Si       0.41589    0.94005    0.40468    1.000
    Si2729   Si       0.44580    0.96188    0.47324    1.000
    N2730    N        0.41325    0.94127    0.49094    1.000
    N2731    N        0.44663    0.95629    0.43024    1.000
    N2732    N        0.45244    0.00195    0.38088    1.000
    N2733    N        0.43154    0.00284    0.47373    1.000
    N2734    N        0.45691    0.80728    0.33786    1.000
    N2735    N        0.40091    0.94225    0.30522    1.000
    N2736    N        0.43853    0.80481    0.56788    1.000
    Si2737   Si       0.44279    0.77004    0.59307    1.000
    N2738    N        0.40532    0.87162    0.57766    1.000
    N2739    N        0.45659    0.83602    0.49522    1.000
    Si2740   Si       0.42303    0.94443    0.65254    1.000
    Si2741   Si       0.45291    0.90437    0.70949    1.000
    N2742    N        0.41801    0.92126    0.69008    1.000
    N2743    N        0.41097    0.99742    0.53789    1.000
    Si2744   Si       0.43149    0.90625    0.58917    1.000
    N2745    N        0.44109    0.92812    0.55244    1.000
    Si2746   Si       0.41036    0.95387    0.53285    1.000
    N2747    N        0.45691    0.88541    0.61545    1.000
    N2748    N        0.43108    0.80244    0.68047    1.000
    Si2749   Si       0.44074    0.76936    0.65503    1.000
    N2750    N        0.45373    0.86133    0.70618    1.000
    N2751    N        0.40650    0.92744    0.61782    1.000
    N2752    N        0.45203    0.91668    0.74983    1.000
    N2753    N        0.41971    0.85992    0.77577    1.000
    N2754    N        0.44096    0.81310    0.81752    1.000
    Si2755   Si       0.42882    0.76923    0.81490    1.000
    N2756    N        0.40975    0.76212    0.85454    1.000
    Si2757   Si       0.45563    0.83969    0.78507    1.000
    N2758    N        0.40321    0.88336    0.82890    1.000
    Si2759   Si       0.43079    0.90193    0.79916    1.000
    N2760    N        0.44549    0.98013    0.76790    1.000
    N2761    N        0.43867    0.99797    0.84315    1.000
    N2762    N        0.45256    0.93634    0.82250    1.000
    Si2763   Si       0.45458    0.93327    0.86623    1.000
    Si2764   Si       0.41836    0.95054    0.75208    1.000
    Si2765   Si       0.45791    0.97840    0.80996    1.000
    N2766    N        0.45216    0.95841    0.95406    1.000
    N2767    N        0.40002    0.99697    0.92510    1.000
    N2768    N        0.42677    0.81163    0.95719    1.000
    Si2769   Si       0.43173    0.86391    0.89087    1.000
    N2770    N        0.43345    0.81964    0.88487    1.000
    Si2771   Si       0.44362    0.84829    0.97172    1.000
    Si2772   Si       0.44387    0.79655    0.92128    1.000
    N2773    N        0.43510    0.87035    0.93454    1.000
    N2774    N        0.42232    0.95157    0.88818    1.000
    Si2775   Si       0.41074    0.99409    0.87895    1.000
    Si2776   Si       0.41687    0.95567    0.93135    1.000
    Si2777   Si       0.48257    0.04392    0.07925    1.000
    Si2778   Si       0.46546    0.02698    0.00301    1.000
    N2779    N        0.47789    0.12604    0.07917    1.000
    N2780    N        0.51035    0.11890    0.02566    1.000
    Si2781   Si       0.51742    0.11062    0.06855    1.000
    N2782    N        0.45850    0.04080    0.11469    1.000
    N2783    N        0.48507    0.18428    0.05224    1.000
    Si2784   Si       0.47376    0.14555    0.03432    1.000
    Si2785   Si       0.47432    0.22339    0.03867    1.000
    N2786    N        0.51243    0.24633    0.04306    1.000
    Si2787   Si       0.51006    0.17891    0.08654    1.000
    Si2788   Si       0.46557    0.13838    0.11972    1.000
    Si2789   Si       0.48564    0.11301    0.18732    1.000
    N2790    N        0.46620    0.10544    0.14715    1.000
    Si2791   Si       0.49735    0.04491    0.21588    1.000
    Si2792   Si       0.48734    0.02871    0.14577    1.000
    N2793    N        0.46781    0.04002    0.18335    1.000
    N2794    N        0.50406    0.15480    0.18887    1.000
    N2795    N        0.45876    0.11895    0.22028    1.000
    N2796    N        0.48945    0.17320    0.12488    1.000
    N2797    N        0.47471    0.23863    0.20571    1.000
    Si2798   Si       0.51635    0.18214    0.15708    1.000
    Si2799   Si       0.48471    0.08314    0.32020    1.000
    N2800    N        0.48132    0.04142    0.32388    1.000
    N2801    N        0.49605    0.09948    0.28141    1.000
    N2802    N        0.48148    0.02932    0.25363    1.000
    Si2803   Si       0.48062    0.03213    0.36619    1.000
    Si2804   Si       0.47179    0.12907    0.26074    1.000
    N2805    N        0.47568    0.19731    0.42048    1.000
    N2806    N        0.48627    0.23124    0.27901    1.000
    N2807    N        0.48500    0.24106    0.34627    1.000
    N2808    N        0.49873    0.16224    0.26042    1.000
    Si2809   Si       0.46248    0.24784    0.24566    1.000
    N2810    N        0.50604    0.16834    0.37396    1.000
    Si2811   Si       0.50058    0.08655    0.41561    1.000
    N2812    N        0.47397    0.06961    0.38661    1.000
    N2813    N        0.48640    0.09362    0.45566    1.000
    Si2814   Si       0.46371    0.17167    0.38619    1.000
    Si2815   Si       0.46209    0.20455    0.46102    1.000
    N2816    N        0.49581    0.22088    0.48190    1.000
    Si2817   Si       0.48109    0.01018    0.29341    1.000
    Si2818   Si       0.48377    0.10235    0.59228    1.000
    Si2819   Si       0.49190    0.04504    0.52954    1.000
    N2820    N        0.48065    0.06615    0.56664    1.000
    Si2821   Si       0.47783    0.02582    0.58477    1.000
    N2822    N        0.50992    0.12569    0.56918    1.000
    N2823    N        0.49300    0.00684    0.54886    1.000
    Si2824   Si       0.49984    0.23191    0.57819    1.000
    Si2825   Si       0.50414    0.16395    0.54709    1.000
    N2826    N        0.46227    0.17438    0.54051    1.000
    Si2827   Si       0.51401    0.25549    0.50159    1.000
    Si2828   Si       0.48744    0.16678    0.71981    1.000
    N2829    N        0.49385    0.03442    0.62465    1.000
    N2830    N        0.51129    0.08337    0.72342    1.000
    N2831    N        0.50082    0.10153    0.63270    1.000
    Si2832   Si       0.47599    0.06096    0.71143    1.000
    N2833    N        0.47618    0.02374    0.68894    1.000
    Si2834   Si       0.46802    0.23985    0.69034    1.000
    Si2835   Si       0.51364    0.13695    0.65578    1.000
    N2836    N        0.50759    0.23600    0.67235    1.000
    N2837    N        0.46474    0.20444    0.71962    1.000
    N2838    N        0.48117    0.14318    0.68415    1.000
    N2839    N        0.46014    0.22139    0.59575    1.000
    Si2840   Si       0.47485    0.05633    0.79065    1.000
    N2841    N        0.48765    0.03875    0.86320    1.000
    N2842    N        0.48471    0.01362    0.79854    1.000
    N2843    N        0.51065    0.08107    0.79097    1.000
    Si2844   Si       0.51395    0.10834    0.75862    1.000
    Si2845   Si       0.50864    0.01373    0.83627    1.000
    Si2846   Si       0.47527    0.00803    0.75226    1.000
    N2847    N        0.46504    0.18809    0.81638    1.000
    N2848    N        0.48998    0.14409    0.75772    1.000
    Si2849   Si       0.47151    0.19725    0.85798    1.000
    Si2850   Si       0.49529    0.16526    0.79567    1.000
    N2851    N        0.51314    0.20435    0.86492    1.000
    N2852    N        0.51141    0.14800    0.83149    1.000
    Si2853   Si       0.48562    0.04714    0.90495    1.000
    N2854    N        0.50416    0.04251    0.98123    1.000
    N2855    N        0.46494    0.01122    0.91677    1.000
    N2856    N        0.47979    0.22117    0.99380    1.000
    N2857    N        0.48667    0.18792    0.93190    1.000
    Si2858   Si       0.49479    0.18595    0.97560    1.000
    N2859    N        0.46999    0.15446    0.99070    1.000
    Si2860   Si       0.49432    0.28694    0.03990    1.000
    N2861    N        0.47921    0.28798    0.08060    1.000
    N2862    N        0.46421    0.28761    0.00825    1.000
    N2863    N        0.48047    0.44723    0.08985    1.000
    Si2864   Si       0.46624    0.47912    0.06487    1.000
    N2865    N        0.46554    0.40801    0.00817    1.000
    N2866    N        0.51859    0.39436    0.10018    1.000
    Si2867   Si       0.48863    0.29582    0.12369    1.000
    N2868    N        0.47541    0.33761    0.12980    1.000
    Si2869   Si       0.50114    0.37484    0.13415    1.000
    N2870    N        0.46355    0.34916    0.23883    1.000
    N2871    N        0.46035    0.26486    0.13674    1.000
    Si2872   Si       0.47982    0.38890    0.23807    1.000
    N2873    N        0.48110    0.40766    0.15491    1.000
    N2874    N        0.48015    0.47411    0.14988    1.000
    Si2875   Si       0.49736    0.42621    0.19080    1.000
    Si2876   Si       0.46491    0.43812    0.12962    1.000
    N2877    N        0.51371    0.38999    0.20902    1.000
    N2878    N        0.46417    0.42654    0.22013    1.000
    Si2879   Si       0.48171    0.32655    0.28005    1.000
    Si2880   Si       0.47414    0.33977    0.34260    1.000
    N2881    N        0.48916    0.30222    0.31978    1.000
    N2882    N        0.51317    0.33649    0.36377    1.000
    N2883    N        0.46287    0.28902    0.26292    1.000
    Si2884   Si       0.47206    0.26240    0.30823    1.000
    N2885    N        0.46471    0.39131    0.35354    1.000
    N2886    N        0.48817    0.40298    0.28018    1.000
    N2887    N        0.48978    0.47234    0.29703    1.000
    Si2888   Si       0.51542    0.49981    0.31705    1.000
    Si2889   Si       0.51194    0.43475    0.29403    1.000
    N2890    N        0.49524    0.50369    0.35806    1.000
    Si2891   Si       0.49917    0.41456    0.37110    1.000
    Si2892   Si       0.50753    0.48418    0.39536    1.000
    Si2893   Si       0.50352    0.33519    0.47350    1.000
    N2894    N        0.48307    0.44937    0.39533    1.000
    N2895    N        0.51889    0.33347    0.43313    1.000
    N2896    N        0.49103    0.48816    0.48968    1.000
    Si2897   Si       0.51722    0.41300    0.49211    1.000
    N2898    N        0.47439    0.41704    0.48508    1.000
    Si2899   Si       0.47266    0.29753    0.54360    1.000
    N2900    N        0.50612    0.32776    0.54387    1.000
    N2901    N        0.49015    0.35296    0.61182    1.000
    Si2902   Si       0.46269    0.31916    0.61725    1.000
    N2903    N        0.49801    0.26044    0.54242    1.000
    N2904    N        0.47858    0.41008    0.57537    1.000
    Si2905   Si       0.49690    0.48149    0.58723    1.000
    Si2906   Si       0.47511    0.39387    0.61740    1.000
    Si2907   Si       0.47802    0.38517    0.71822    1.000
    N2908    N        0.47651    0.27721    0.62828    1.000
    N2909    N        0.48980    0.34834    0.69782    1.000
    Si2910   Si       0.51572    0.26699    0.64362    1.000
    N2911    N        0.46769    0.27731    0.70979    1.000
    N2912    N        0.51563    0.40819    0.71517    1.000
    Si2913   Si       0.51980    0.41975    0.56660    1.000
    Si2914   Si       0.46761    0.44549    0.67824    1.000
    N2915    N        0.48131    0.50389    0.62205    1.000
    N2916    N        0.48936    0.41661    0.65233    1.000
    N2917    N        0.49379    0.47133    0.69790    1.000
    N2918    N        0.50352    0.28976    0.83185    1.000
    Si2919   Si       0.47320    0.27138    0.75246    1.000
    N2920    N        0.47538    0.31102    0.77705    1.000
    Si2921   Si       0.46397    0.30806    0.82175    1.000
    N2922    N        0.51126    0.25813    0.76804    1.000
    Si2923   Si       0.51718    0.29353    0.79299    1.000
    N2924    N        0.46626    0.38114    0.76213    1.000
    N2925    N        0.48623    0.48331    0.81735    1.000
    Si2926   Si       0.48828    0.45565    0.85058    1.000
    Si2927   Si       0.47106    0.41709    0.78579    1.000
    N2928    N        0.46452    0.42210    0.82923    1.000
    N2929    N        0.51367    0.43356    0.77826    1.000
    Si2930   Si       0.51359    0.47767    0.78428    1.000
    N2931    N        0.46717    0.34333    0.84362    1.000
    Si2932   Si       0.48464    0.35604    0.88040    1.000
    N2933    N        0.49012    0.35301    0.97446    1.000
    N2934    N        0.50621    0.27350    0.90189    1.000
    Si2935   Si       0.47727    0.26125    0.97720    1.000
    Si2936   Si       0.46244    0.26435    0.90450    1.000
    N2937    N        0.51378    0.28033    0.96516    1.000
    Si2938   Si       0.48397    0.47654    0.92886    1.000
    N2939    N        0.48551    0.39828    0.89417    1.000
    N2940    N        0.46075    0.46721    0.96349    1.000
    N2941    N        0.47234    0.47397    0.88712    1.000
    N2942    N        0.51853    0.45021    0.92744    1.000
    Si2943   Si       0.50182    0.38813    0.99691    1.000
    Si2944   Si       0.49519    0.54348    0.08462    1.000
    N2945    N        0.48833    0.60220    0.00903    1.000
    N2946    N        0.47718    0.53372    0.99958    1.000
    Si2947   Si       0.46435    0.56762    0.02193    1.000
    N2948    N        0.46338    0.56565    0.06465    1.000
    N2949    N        0.50090    0.50872    0.05904    1.000
    N2950    N        0.48081    0.72729    0.04268    1.000
    N2951    N        0.50525    0.66997    0.01248    1.000
    N2952    N        0.49610    0.72980    0.10928    1.000
    Si2953   Si       0.49410    0.71224    0.00541    1.000
    Si2954   Si       0.46441    0.70502    0.12216    1.000
    N2955    N        0.48882    0.53260    0.12539    1.000
    N2956    N        0.49519    0.61317    0.23364    1.000
    Si2957   Si       0.48767    0.60274    0.19320    1.000
    N2958    N        0.48297    0.66469    0.12193    1.000
    N2959    N        0.47025    0.64119    0.18031    1.000
    Si2960   Si       0.45999    0.63750    0.24344    1.000
    Si2961   Si       0.46264    0.68320    0.19092    1.000
    N2962    N        0.49787    0.69294    0.21230    1.000
    Si2963   Si       0.51325    0.71875    0.07004    1.000
    Si2964   Si       0.47544    0.64450    0.99283    1.000
    Si2965   Si       0.48488    0.56440    0.30276    1.000
    N2966    N        0.50484    0.60119    0.31282    1.000
    N2967    N        0.52233    0.54036    0.30583    1.000
    Si2968   Si       0.50847    0.64325    0.30306    1.000
    N2969    N        0.48111    0.66260    0.27476    1.000
    N2970    N        0.48285    0.73662    0.33272    1.000
    Si2971   Si       0.48389    0.69748    0.35007    1.000
    Si2972   Si       0.49282    0.74817    0.29241    1.000
    Si2973   Si       0.48686    0.69942    0.25393    1.000
    N2974    N        0.51781    0.66908    0.33903    1.000
    N2975    N        0.46275    0.73459    0.26095    1.000
    N2976    N        0.50672    0.51582    0.42580    1.000
    N2977    N        0.48754    0.56066    0.48252    1.000
    Si2978   Si       0.48291    0.52323    0.46450    1.000
    Si2979   Si       0.47906    0.58343    0.44782    1.000
    N2980    N        0.46395    0.62448    0.44164    1.000
    N2981    N        0.50423    0.67339    0.46339    1.000
    Si2982   Si       0.46143    0.66332    0.46308    1.000
    N2983    N        0.48994    0.70094    0.39213    1.000
    N2984    N        0.47997    0.74742    0.44012    1.000
    N2985    N        0.45862    0.55334    0.26901    1.000
    Si2986   Si       0.45995    0.72364    0.41118    1.000
    N2987    N        0.48775    0.57360    0.55011    1.000
    Si2988   Si       0.51461    0.57761    0.51473    1.000
    Si2989   Si       0.51143    0.58369    0.58529    1.000
    N2990    N        0.51042    0.62251    0.51586    1.000
    N2991    N        0.47951    0.67790    0.55389    1.000
    Si2992   Si       0.47586    0.73886    0.53198    1.000
    Si2993   Si       0.46830    0.69978    0.59102    1.000
    Si2994   Si       0.51257    0.65074    0.55019    1.000
    N2995    N        0.49820    0.71231    0.61929    1.000
    N2996    N        0.45933    0.71053    0.50230    1.000
    N2997    N        0.47562    0.66207    0.66691    1.000
    N2998    N        0.49573    0.57129    0.62274    1.000
    Si2999   Si       0.51062    0.53205    0.63763    1.000
    N3000    N        0.47493    0.59411    0.69332    1.000
    N3001    N        0.50780    0.53598    0.67939    1.000
    Si3002   Si       0.51580    0.57691    0.69630    1.000
    Si3003   Si       0.46262    0.58163    0.65195    1.000
    N3004    N        0.51307    0.71976    0.68391    1.000
    N3005    N        0.50584    0.75420    0.73544    1.000
    Si3006   Si       0.47593    0.64574    0.70898    1.000
    Si3007   Si       0.50657    0.68931    0.65368    1.000
    Si3008   Si       0.50561    0.71193    0.72584    1.000
    N3009    N        0.46997    0.68895    0.72385    1.000
    N3010    N        0.51954    0.74252    0.52601    1.000
    Si3011   Si       0.51465    0.50617    0.71094    1.000
    Si3012   Si       0.50460    0.56257    0.83586    1.000
    Si3013   Si       0.50360    0.54866    0.76372    1.000
    N3014    N        0.51124    0.60456    0.84778    1.000
    N3015    N        0.46318    0.56574    0.75565    1.000
    N3016    N        0.51737    0.53757    0.86976    1.000
    N3017    N        0.50227    0.50668    0.75374    1.000
    N3018    N        0.46274    0.71034    0.97550    1.000
    N3019    N        0.48378    0.67090    0.84511    1.000
    Si3020   Si       0.51486    0.64395    0.82893    1.000
    N3021    N        0.51065    0.64637    0.78635    1.000
    N3022    N        0.46442    0.74188    0.81126    1.000
    N3023    N        0.48032    0.63824    0.95277    1.000
    N3024    N        0.49155    0.58422    0.91099    1.000
    Si3025   Si       0.48719    0.54273    0.90244    1.000
    N3026    N        0.49802    0.51876    0.93804    1.000
    Si3027   Si       0.51364    0.52692    0.97764    1.000
    N3028    N        0.50591    0.73138    0.92321    1.000
    Si3029   Si       0.46535    0.72308    0.93432    1.000
    Si3030   Si       0.48662    0.80162    0.06182    1.000
    N3031    N        0.48210    0.84329    0.05703    1.000
    N3032    N        0.50249    0.79667    0.02247    1.000
    N3033    N        0.50699    0.79570    0.10097    1.000
    Si3034   Si       0.50223    0.84059    0.01810    1.000
    Si3035   Si       0.46533    0.86379    0.09141    1.000
    N3036    N        0.47426    0.98757    0.01354    1.000
    Si3037   Si       0.48837    0.96217    0.10687    1.000
    Si3038   Si       0.50413    0.98096    0.04403    1.000
    N3039    N        0.47822    0.91505    0.00169    1.000
    N3040    N        0.51099    0.94762    0.07053    1.000
    N3041    N        0.49747    0.00440    0.08010    1.000
    N3042    N        0.48788    0.85714    0.12654    1.000
    N3043    N        0.50590    0.82320    0.22984    1.000
    Si3044   Si       0.48861    0.81337    0.13719    1.000
    N3045    N        0.51668    0.80100    0.16697    1.000
    Si3046   Si       0.46380    0.81687    0.22164    1.000
    Si3047   Si       0.48951    0.94834    0.17117    1.000
    N3048    N        0.50624    0.89208    0.22891    1.000
    N3049    N        0.49738    0.92517    0.13563    1.000
    N3050    N        0.48851    0.98456    0.14692    1.000
    Si3051   Si       0.46382    0.89857    0.22341    1.000
    N3052    N        0.48160    0.85702    0.28705    1.000
    N3053    N        0.50045    0.78960    0.28684    1.000
    Si3054   Si       0.47283    0.77107    0.35786    1.000
    Si3055   Si       0.46794    0.81675    0.29600    1.000
    Si3056   Si       0.50977    0.85656    0.25488    1.000
    Si3057   Si       0.47853    0.97294    0.40559    1.000
    N3058    N        0.48979    0.91552    0.32658    1.000
    N3059    N        0.51109    0.98318    0.30673    1.000
    Si3060   Si       0.47164    0.90683    0.36678    1.000
    Si3061   Si       0.46317    0.89330    0.29772    1.000
    Si3062   Si       0.51526    0.90437    0.42694    1.000
    N3063    N        0.46848    0.86532    0.38163    1.000
    N3064    N        0.48405    0.81448    0.42962    1.000
    Si3065   Si       0.50622    0.77840    0.42304    1.000
    Si3066   Si       0.49205    0.85750    0.48729    1.000
    N3067    N        0.51033    0.78042    0.37829    1.000
    Si3068   Si       0.46553    0.85213    0.42315    1.000
    N3069    N        0.48750    0.87950    0.44938    1.000
    N3070    N        0.50657    0.98740    0.43811    1.000
    N3071    N        0.48246    0.95016    0.49382    1.000
    N3072    N        0.49585    0.93184    0.39633    1.000
    N3073    N        0.51356    0.00521    0.37538    1.000
    N3074    N        0.50457    0.81644    0.54198    1.000
    Si3075   Si       0.46163    0.81015    0.52957    1.000
    N3076    N        0.49685    0.88414    0.52335    1.000
    Si3077   Si       0.47897    0.92457    0.52990    1.000
    N3078    N        0.51069    0.94118    0.55369    1.000
    N3079    N        0.51581    0.88239    0.73860    1.000
    N3080    N        0.47212    0.77519    0.62529    1.000
    Si3081   Si       0.46133    0.82059    0.70634    1.000
    N3082    N        0.51071    0.86235    0.65887    1.000
    N3083    N        0.50036    0.80445    0.69230    1.000
    Si3084   Si       0.49830    0.88429    0.62399    1.000
    N3085    N        0.48664    0.91793    0.68856    1.000
    Si3086   Si       0.49682    0.94841    0.65760    1.000
    N3087    N        0.51241    0.92521    0.62460    1.000
    N3088    N        0.51502    0.00386    0.73392    1.000
    N3089    N        0.45814    0.77191    0.51047    1.000
    N3090    N        0.45932    0.96925    0.65067    1.000
    Si3091   Si       0.50936    0.75582    0.61953    1.000
    N3092    N        0.49760    0.83841    0.84551    1.000
    N3093    N        0.48696    0.77472    0.86253    1.000
    Si3094   Si       0.50860    0.79289    0.75760    1.000
    Si3095   Si       0.46492    0.81102    0.85319    1.000
    N3096    N        0.47082    0.81697    0.75138    1.000
    N3097    N        0.51233    0.79209    0.80093    1.000
    N3098    N        0.47365    0.87970    0.79821    1.000
    Si3099   Si       0.49061    0.88186    0.84141    1.000
    N3100    N        0.51387    0.94172    0.77010    1.000
    Si3101   Si       0.49131    0.90592    0.76723    1.000
    N3102    N        0.48862    0.84928    0.97565    1.000
    Si3103   Si       0.50270    0.76833    0.90102    1.000
    N3104    N        0.48523    0.79994    0.92600    1.000
    Si3105   Si       0.51404    0.82549    0.94666    1.000
    N3106    N        0.48861    0.94734    0.89339    1.000
    Si3107   Si       0.48435    0.97476    0.92814    1.000
    Si3108   Si       0.50765    0.89107    0.98230    1.000
    N3109    N        0.45793    0.88992    0.87010    1.000
    Si3110   Si       0.50162    0.75899    0.82480    1.000
    Si3111   Si       0.54919    0.05849    0.10833    1.000
    N3112    N        0.51794    0.06960    0.07894    1.000
    Si3113   Si       0.54365    0.13188    0.99925    1.000
    Si3114   Si       0.56590    0.13871    0.11478    1.000
    N3115    N        0.54141    0.14853    0.07900    1.000
    Si3116   Si       0.54986    0.23047    0.05887    1.000
    N3117    N        0.53261    0.21658    0.09585    1.000
    N3118    N        0.57411    0.19777    0.04312    1.000
    Si3119   Si       0.57801    0.15688    0.05651    1.000
    N3120    N        0.56638    0.09636    0.12294    1.000
    N3121    N        0.53324    0.02293    0.20061    1.000
    N3122    N        0.52536    0.04728    0.14197    1.000
    Si3123   Si       0.54666    0.05859    0.18160    1.000
    Si3124   Si       0.52490    0.16707    0.22428    1.000
    N3125    N        0.52700    0.22360    0.16569    1.000
    Si3126   Si       0.54198    0.24337    0.12975    1.000
    N3127    N        0.55644    0.16598    0.14723    1.000
    N3128    N        0.56595    0.15277    0.21497    1.000
    N3129    N        0.53064    0.20987    0.23586    1.000
    N3130    N        0.51526    0.08452    0.20218    1.000
    Si3131   Si       0.51743    0.23920    0.20545    1.000
    Si3132   Si       0.55561    0.06729    0.33298    1.000
    Si3133   Si       0.53907    0.11428    0.29532    1.000
    N3134    N        0.56622    0.02359    0.33352    1.000
    N3135    N        0.56474    0.08042    0.29236    1.000
    N3136    N        0.52240    0.10337    0.33581    1.000
    Si3137   Si       0.52975    0.13411    0.36474    1.000
    N3138    N        0.53830    0.20214    0.31247    1.000
    N3139    N        0.56853    0.15340    0.35427    1.000
    Si3140   Si       0.52747    0.23056    0.34555    1.000
    N3141    N        0.56797    0.14664    0.28389    1.000
    Si3142   Si       0.57372    0.17508    0.31790    1.000
    N3143    N        0.52751    0.05449    0.42991    1.000
    N3144    N        0.52969    0.11576    0.40446    1.000
    N3145    N        0.55062    0.10982    0.47216    1.000
    Si3146   Si       0.52426    0.07552    0.46992    1.000
    Si3147   Si       0.53210    0.01323    0.41462    1.000
    Si3148   Si       0.53252    0.19527    0.48594    1.000
    Si3149   Si       0.55051    0.13645    0.43830    1.000
    N3150    N        0.53557    0.17869    0.44628    1.000
    N3151    N        0.54042    0.22205    0.38785    1.000
    Si3152   Si       0.51502    0.20052    0.27692    1.000
    Si3153   Si       0.51816    0.19294    0.40930    1.000
    Si3154   Si       0.55147    0.10759    0.57864    1.000
    N3155    N        0.55296    0.07077    0.60239    1.000
    Si3156   Si       0.55881    0.02462    0.50754    1.000
    N3157    N        0.52483    0.05164    0.50489    1.000
    N3158    N        0.57528    0.10470    0.54152    1.000
    Si3159   Si       0.56209    0.13013    0.50904    1.000
    Si3160   Si       0.54882    0.17994    0.60501    1.000
    N3161    N        0.52842    0.16279    0.51212    1.000
    N3162    N        0.56445    0.13866    0.60664    1.000
    N3163    N        0.55017    0.23116    0.50337    1.000
    Si3164   Si       0.57094    0.24784    0.59583    1.000
    N3165    N        0.52936    0.25105    0.60507    1.000
    Si3166   Si       0.54689    0.08176    0.69714    1.000
    N3167    N        0.54931    0.11743    0.67280    1.000
    N3168    N        0.53764    0.04857    0.67206    1.000
    Si3169   Si       0.52273    0.06329    0.63381    1.000
    N3170    N        0.52831    0.18276    0.71653    1.000
    N3171    N        0.52563    0.17644    0.64524    1.000
    N3172    N        0.57257    0.24898    0.74271    1.000
    Si3173   Si       0.53270    0.20270    0.67922    1.000
    N3174    N        0.52084    0.19245    0.57528    1.000
    Si3175   Si       0.51734    0.01357    0.69164    1.000
    N3176    N        0.54506    0.03339    0.83260    1.000
    N3177    N        0.55228    0.09828    0.85439    1.000
    Si3178   Si       0.54592    0.07332    0.81662    1.000
    N3179    N        0.55340    0.12668    0.75745    1.000
    Si3180   Si       0.54528    0.13843    0.85846    1.000
    Si3181   Si       0.53804    0.19585    0.83004    1.000
    N3182    N        0.53066    0.19106    0.78451    1.000
    N3183    N        0.55854    0.23652    0.81851    1.000
    Si3184   Si       0.54502    0.23313    0.77595    1.000
    Si3185   Si       0.54987    0.16830    0.75211    1.000
    N3186    N        0.57122    0.17301    0.84425    1.000
    Si3187   Si       0.56156    0.07324    0.88987    1.000
    N3188    N        0.56263    0.03283    0.96699    1.000
    N3189    N        0.54523    0.10848    0.96291    1.000
    Si3190   Si       0.53288    0.06474    0.95676    1.000
    N3191    N        0.52605    0.06162    0.91400    1.000
    Si3192   Si       0.56333    0.13128    0.92993    1.000
    Si3193   Si       0.52180    0.19179    0.90637    1.000
    Si3194   Si       0.56395    0.19512    0.95938    1.000
    N3195    N        0.54541    0.21955    0.92926    1.000
    N3196    N        0.53894    0.15100    0.89952    1.000
    N3197    N        0.53497    0.17283    0.98283    1.000
    Si3198   Si       0.56053    0.30700    0.04667    1.000
    Si3199   Si       0.54186    0.37309    0.07241    1.000
    N3200    N        0.55635    0.33313    0.08255    1.000
    N3201    N        0.52601    0.31113    0.02221    1.000
    N3202    N        0.57097    0.26844    0.06764    1.000
    N3203    N        0.52401    0.38004    0.03271    1.000
    Si3204   Si       0.53330    0.49076    0.03679    1.000
    Si3205   Si       0.55339    0.41885    0.02607    1.000
    N3206    N        0.53549    0.45095    0.05151    1.000
    Si3207   Si       0.52267    0.43775    0.09133    1.000
    N3208    N        0.57432    0.40040    0.06307    1.000
    Si3209   Si       0.56105    0.45758    0.22049    1.000
    Si3210   Si       0.55235    0.32358    0.12630    1.000
    N3211    N        0.53013    0.28649    0.12993    1.000
    Si3212   Si       0.54682    0.37403    0.18768    1.000
    N3213    N        0.56343    0.34119    0.20790    1.000
    N3214    N        0.53673    0.35453    0.14937    1.000
    N3215    N        0.53508    0.27616    0.21906    1.000
    Si3216   Si       0.54564    0.31272    0.23659    1.000
    Si3217   Si       0.52269    0.48161    0.15568    1.000
    N3218    N        0.56873    0.41065    0.17986    1.000
    N3219    N        0.54296    0.45249    0.12869    1.000
    N3220    N        0.52536    0.46036    0.19427    1.000
    Si3221   Si       0.57902    0.44324    0.15351    1.000
    N3222    N        0.57315    0.49665    0.24303    1.000
    Si3223   Si       0.53101    0.30474    0.33650    1.000
    N3224    N        0.54996    0.26674    0.33588    1.000
    N3225    N        0.52331    0.33394    0.26971    1.000
    Si3226   Si       0.56147    0.34625    0.28699    1.000
    N3227    N        0.56635    0.32773    0.32513    1.000
    N3228    N        0.54069    0.44651    0.26362    1.000
    N3229    N        0.55305    0.47987    0.31885    1.000
    Si3230   Si       0.55574    0.44992    0.35085    1.000
    N3231    N        0.52082    0.42689    0.33710    1.000
    Si3232   Si       0.57251    0.47282    0.27962    1.000
    Si3233   Si       0.54910    0.30351    0.44571    1.000
    Si3234   Si       0.53083    0.35619    0.39657    1.000
    N3235    N        0.56173    0.27727    0.41777    1.000
    N3236    N        0.57305    0.34929    0.39100    1.000
    N3237    N        0.52335    0.36999    0.49067    1.000
    N3238    N        0.53930    0.43446    0.46030    1.000
    N3239    N        0.53009    0.39908    0.39560    1.000
    Si3240   Si       0.57192    0.45961    0.47436    1.000
    Si3241   Si       0.55512    0.42632    0.41898    1.000
    N3242    N        0.54872    0.46476    0.39067    1.000
    N3243    N        0.51896    0.29361    0.47996    1.000
    Si3244   Si       0.53774    0.35215    0.52837    1.000
    N3245    N        0.55720    0.31948    0.58790    1.000
    N3246    N        0.53574    0.38054    0.56194    1.000
    N3247    N        0.57413    0.32800    0.52327    1.000
    Si3248   Si       0.52236    0.34638    0.58407    1.000
    N3249    N        0.52659    0.45134    0.59605    1.000
    N3250    N        0.55913    0.49326    0.49989    1.000
    Si3251   Si       0.52277    0.48202    0.51906    1.000
    N3252    N        0.52388    0.43922    0.52689    1.000
    Si3253   Si       0.52730    0.41369    0.67389    1.000
    N3254    N        0.51986    0.50304    0.55806    1.000
    N3255    N        0.55161    0.32424    0.71574    1.000
    N3256    N        0.54707    0.37546    0.66395    1.000
    Si3257   Si       0.57066    0.30926    0.62772    1.000
    Si3258   Si       0.52880    0.34028    0.68111    1.000
    N3259    N        0.53474    0.30539    0.65233    1.000
    Si3260   Si       0.55231    0.46618    0.62737    1.000
    N3261    N        0.56870    0.44535    0.73935    1.000
    Si3262   Si       0.57398    0.46694    0.70230    1.000
    N3263    N        0.55204    0.45011    0.66753    1.000
    N3264    N        0.55242    0.31612    0.78753    1.000
    Si3265   Si       0.56468    0.34129    0.75414    1.000
    Si3266   Si       0.52658    0.29490    0.86899    1.000
    N3267    N        0.56468    0.38056    0.76719    1.000
    N3268    N        0.57262    0.38423    0.84835    1.000
    N3269    N        0.55494    0.48840    0.79123    1.000
    N3270    N        0.52839    0.44120    0.85900    1.000
    Si3271   Si       0.56644    0.42848    0.84472    1.000
    Si3272   Si       0.54187    0.41267    0.75157    1.000
    N3273    N        0.56926    0.27954    0.87249    1.000
    Si3274   Si       0.55738    0.36110    0.88394    1.000
    N3275    N        0.55711    0.33973    0.96832    1.000
    Si3276   Si       0.53860    0.26324    0.93364    1.000
    N3277    N        0.52248    0.33652    0.87935    1.000
    Si3278   Si       0.52062    0.32079    0.98098    1.000
    Si3279   Si       0.52319    0.41958    0.90038    1.000
    N3280    N        0.54882    0.38982    0.91770    1.000
    Si3281   Si       0.55970    0.38249    0.95855    1.000
    N3282    N        0.53034    0.48847    0.99177    1.000
    Si3283   Si       0.54159    0.45537    0.96500    1.000
    N3284    N        0.53831    0.41406    0.98291    1.000
    Si3285   Si       0.55265    0.60305    0.08855    1.000
    N3286    N        0.54115    0.61669    0.04735    1.000
    N3287    N        0.53161    0.56691    0.09787    1.000
    Si3288   Si       0.53225    0.59737    0.00799    1.000
    N3289    N        0.57093    0.51336    0.03875    1.000
    N3290    N        0.54482    0.63170    0.11982    1.000
    Si3291   Si       0.53876    0.65921    0.04077    1.000
    N3292    N        0.52930    0.68002    0.07626    1.000
    N3293    N        0.54823    0.74555    0.07525    1.000
    N3294    N        0.57251    0.67669    0.02014    1.000
    Si3295   Si       0.52440    0.66877    0.11813    1.000
    N3296    N        0.55904    0.75814    0.14157    1.000
    Si3297   Si       0.54784    0.62046    0.16269    1.000
    Si3298   Si       0.53726    0.62464    0.23699    1.000
    N3299    N        0.54350    0.51851    0.15590    1.000
    N3300    N        0.56360    0.59157    0.23099    1.000
    Si3301   Si       0.52388    0.55388    0.14144    1.000
    N3302    N        0.51899    0.58816    0.16678    1.000
    N3303    N        0.54419    0.69212    0.15014    1.000
    N3304    N        0.56324    0.71288    0.21561    1.000
    Si3305   Si       0.53557    0.68726    0.19290    1.000
    N3306    N        0.54440    0.64582    0.19825    1.000
    Si3307   Si       0.57978    0.71784    0.14248    1.000
    Si3308   Si       0.53986    0.57366    0.32687    1.000
    N3309    N        0.57542    0.62974    0.35176    1.000
    N3310    N        0.54728    0.57040    0.37000    1.000
    N3311    N        0.57724    0.58429    0.30867    1.000
    N3312    N        0.54655    0.64003    0.27844    1.000
    Si3313   Si       0.55768    0.73106    0.25585    1.000
    Si3314   Si       0.54711    0.65733    0.36794    1.000
    N3315    N        0.52232    0.71969    0.27540    1.000
    N3316    N        0.57245    0.75126    0.35349    1.000
    Si3317   Si       0.53486    0.55017    0.41039    1.000
    Si3318   Si       0.54878    0.61668    0.43159    1.000
    N3319    N        0.55837    0.62972    0.47373    1.000
    N3320    N        0.57338    0.53352    0.41758    1.000
    N3321    N        0.52033    0.58407    0.43223    1.000
    Si3322   Si       0.52842    0.65451    0.49231    1.000
    Si3323   Si       0.56444    0.74401    0.45085    1.000
    Si3324   Si       0.57321    0.72704    0.39026    1.000
    N3325    N        0.53277    0.64784    0.40743    1.000
    N3326    N        0.54494    0.71712    0.42180    1.000
    N3327    N        0.57924    0.68454    0.37743    1.000
    Si3328   Si       0.51554    0.68654    0.42329    1.000
    Si3329   Si       0.55209    0.52036    0.58148    1.000
    N3330    N        0.55015    0.56440    0.57920    1.000
    N3331    N        0.55465    0.56309    0.50694    1.000
    N3332    N        0.52153    0.62785    0.58628    1.000
    Si3333   Si       0.55238    0.71602    0.52172    1.000
    N3334    N        0.54477    0.67178    0.52836    1.000
    Si3335   Si       0.55288    0.63979    0.61262    1.000
    N3336    N        0.51887    0.64111    0.71631    1.000
    Si3337   Si       0.57485    0.72763    0.72744    1.000
    N3338    N        0.54546    0.51095    0.62257    1.000
    N3339    N        0.53137    0.56504    0.73418    1.000
    Si3340   Si       0.56885    0.54709    0.72796    1.000
    N3341    N        0.54605    0.59966    0.67120    1.000
    N3342    N        0.55863    0.50827    0.70907    1.000
    Si3343   Si       0.54713    0.64064    0.68380    1.000
    N3344    N        0.54506    0.69757    0.74158    1.000
    N3345    N        0.54085    0.66297    0.64720    1.000
    Si3346   Si       0.57359    0.75215    0.58866    1.000
    Si3347   Si       0.56546    0.53010    0.80187    1.000
    N3348    N        0.52798    0.55043    0.80071    1.000
    N3349    N        0.55245    0.65940    0.84376    1.000
    N3350    N        0.53763    0.73762    0.83455    1.000
    Si3351   Si       0.53832    0.65571    0.75410    1.000
    Si3352   Si       0.56330    0.70203    0.84021    1.000
    N3353    N        0.57440    0.63516    0.76095    1.000
    Si3354   Si       0.56013    0.53930    0.87978    1.000
    N3355    N        0.56230    0.58151    0.89185    1.000
    N3356    N        0.54616    0.62326    0.97733    1.000
    Si3357   Si       0.52323    0.60291    0.88852    1.000
    N3358    N        0.54131    0.55771    0.99261    1.000
    N3359    N        0.56660    0.70380    0.88575    1.000
    N3360    N        0.52643    0.73581    0.99001    1.000
    N3361    N        0.55125    0.68140    0.95255    1.000
    Si3362   Si       0.52301    0.64760    0.94693    1.000
    Si3363   Si       0.56119    0.66129    0.88700    1.000
    Si3364   Si       0.54100    0.72441    0.95067    1.000
    N3365    N        0.52728    0.64106    0.90596    1.000
    N3366    N        0.53302    0.87142    0.01473    1.000
    N3367    N        0.56800    0.78972    0.02641    1.000
    Si3368   Si       0.53326    0.77786    0.99992    1.000
    Si3369   Si       0.52944    0.76151    0.11166    1.000
    Si3370   Si       0.57174    0.88001    0.03066    1.000
    Si3371   Si       0.57038    0.85787    0.10155    1.000
    N3372    N        0.54715    0.89253    0.10275    1.000
    Si3373   Si       0.54904    0.92980    0.08024    1.000
    N3374    N        0.53795    0.98540    0.01889    1.000
    N3375    N        0.56971    0.92223    0.04196    1.000
    Si3376   Si       0.57421    0.96083    0.01963    1.000
    Si3377   Si       0.53195    0.79655    0.20776    1.000
    N3378    N        0.57301    0.81251    0.19710    1.000
    N3379    N        0.54330    0.88139    0.17117    1.000
    N3380    N        0.57525    0.90081    0.22844    1.000
    N3381    N        0.52559    0.94862    0.19406    1.000
    Si3382   Si       0.55053    0.98317    0.19682    1.000
    Si3383   Si       0.53876    0.90727    0.20495    1.000
    Si3384   Si       0.57770    0.79377    0.15564    1.000
    N3385    N        0.57880    0.83285    0.13466    1.000
    Si3386   Si       0.51711    0.88761    0.13705    1.000
    N3387    N        0.55176    0.77543    0.24417    1.000
    N3388    N        0.54802    0.84731    0.27277    1.000
    N3389    N        0.55692    0.80814    0.32093    1.000
    Si3390   Si       0.54839    0.78838    0.35996    1.000
    Si3391   Si       0.54135    0.80347    0.28089    1.000
    N3392    N        0.56786    0.87417    0.34254    1.000
    Si3393   Si       0.51998    0.96307    0.47352    1.000
    Si3394   Si       0.56668    0.88700    0.26970    1.000
    N3395    N        0.55388    0.95367    0.34624    1.000
    N3396    N        0.55101    0.91833    0.29383    1.000
    Si3397   Si       0.53488    0.99434    0.34025    1.000
    Si3398   Si       0.57423    0.91556    0.33171    1.000
    Si3399   Si       0.52090    0.94158    0.31154    1.000
    Si3400   Si       0.57197    0.85907    0.38354    1.000
    Si3401   Si       0.55532    0.80723    0.48075    1.000
    N3402    N        0.53945    0.77817    0.45449    1.000
    N3403    N        0.56800    0.81637    0.38948    1.000
    N3404    N        0.53068    0.84188    0.48406    1.000
    N3405    N        0.54283    0.87787    0.40741    1.000
    N3406    N        0.57218    0.99659    0.41173    1.000
    N3407    N        0.54169    0.93208    0.45300    1.000
    N3408    N        0.56691    0.78870    0.51820    1.000
    Si3409   Si       0.53060    0.78208    0.54339    1.000
    N3410    N        0.56816    0.85228    0.55450    1.000
    N3411    N        0.53511    0.77215    0.58579    1.000
    Si3412   Si       0.56267    0.87785    0.58949    1.000
    Si3413   Si       0.52292    0.85554    0.54573    1.000
    N3414    N        0.51870    0.87058    0.58774    1.000
    N3415    N        0.57036    0.91929    0.58699    1.000
    N3416    N        0.54975    0.98271    0.58092    1.000
    Si3417   Si       0.53327    0.94244    0.59088    1.000
    N3418    N        0.53958    0.98499    0.50548    1.000
    Si3419   Si       0.52561    0.97983    0.54446    1.000
    Si3420   Si       0.57039    0.80611    0.71616    1.000
    N3421    N        0.56650    0.83139    0.68068    1.000
    N3422    N        0.56119    0.76482    0.70609    1.000
    N3423    N        0.53557    0.77379    0.65080    1.000
    Si3424   Si       0.52597    0.82015    0.66238    1.000
    Si3425   Si       0.51645    0.76368    0.69116    1.000
    Si3426   Si       0.56447    0.94750    0.68173    1.000
    N3427    N        0.52748    0.97417    0.67446    1.000
    N3428    N        0.55683    0.90391    0.68304    1.000
    N3429    N        0.56925    0.95997    0.72349    1.000
    Si3430   Si       0.51781    0.89029    0.69456    1.000
    N3431    N        0.54577    0.86039    0.80219    1.000
    Si3432   Si       0.53097    0.82473    0.82112    1.000
    Si3433   Si       0.55129    0.86159    0.76006    1.000
    Si3434   Si       0.56094    0.76918    0.85605    1.000
    N3435    N        0.56628    0.81128    0.84576    1.000
    N3436    N        0.54474    0.82112    0.74786    1.000
    Si3437   Si       0.56847    0.88505    0.83573    1.000
    Si3438   Si       0.56016    0.95867    0.81851    1.000
    N3439    N        0.56460    0.98277    0.78389    1.000
    N3440    N        0.52545    0.90609    0.84945    1.000
    Si3441   Si       0.53681    0.97315    0.75267    1.000
    N3442    N        0.52038    0.97170    0.83927    1.000
    Si3443   Si       0.52477    0.94267    0.87055    1.000
    Si3444   Si       0.57143    0.78557    0.93401    1.000
    Si3445   Si       0.56102    0.82927    0.88739    1.000
    N3446    N        0.54472    0.77927    0.89583    1.000
    N3447    N        0.53498    0.84846    0.91625    1.000
    N3448    N        0.54343    0.79917    0.96409    1.000
    N3449    N        0.57456    0.87177    0.87700    1.000
    N3450    N        0.55522    0.93854    0.90207    1.000
    N3451    N        0.52711    0.90745    0.94883    1.000
    Si3452   Si       0.53140    0.00680    0.98244    1.000
    Si3453   Si       0.54903    0.94719    0.94656    1.000
    N3454    N        0.51946    0.97822    0.95270    1.000
    Si3455   Si       0.54942    0.89015    0.91375    1.000
    N3456    N        0.57692    0.94682    0.97763    1.000
    Si3457   Si       0.61729    0.10278    0.01837    1.000
    N3458    N        0.60777    0.06093    0.01142    1.000
    Si3459   Si       0.62590    0.03528    0.10280    1.000
    Si3460   Si       0.62673    0.02295    0.02792    1.000
    N3461    N        0.58221    0.03052    0.10625    1.000
    N3462    N        0.58139    0.12916    0.02354    1.000
    Si3463   Si       0.60562    0.20673    0.01538    1.000
    N3464    N        0.60276    0.15323    0.09136    1.000
    N3465    N        0.62764    0.24087    0.03003    1.000
    N3466    N        0.63228    0.17659    0.00380    1.000
    Si3467   Si       0.60196    0.09136    0.14834    1.000
    Si3468   Si       0.61826    0.07077    0.21762    1.000
    N3469    N        0.58821    0.07074    0.18655    1.000
    N3470    N        0.61101    0.10765    0.24266    1.000
    N3471    N        0.61173    0.13296    0.15753    1.000
    Si3472   Si       0.62085    0.22550    0.14733    1.000
    N3473    N        0.60866    0.20072    0.18189    1.000
    Si3474   Si       0.63363    0.15444    0.12353    1.000
    N3475    N        0.58594    0.24105    0.12723    1.000
    N3476    N        0.61075    0.24851    0.23954    1.000
    Si3477   Si       0.58860    0.16308    0.17732    1.000
    Si3478   Si       0.62528    0.21406    0.21939    1.000
    N3479    N        0.61960    0.18018    0.24735    1.000
    Si3480   Si       0.60549    0.08209    0.27675    1.000
    Si3481   Si       0.62298    0.08316    0.34874    1.000
    N3482    N        0.58257    0.08715    0.36103    1.000
    Si3483   Si       0.60932    0.01235    0.33108    1.000
    N3484    N        0.61179    0.04563    0.25213    1.000
    Si3485   Si       0.57614    0.23920    0.40071    1.000
    N3486    N        0.61747    0.18661    0.31613    1.000
    Si3487   Si       0.63131    0.20732    0.35440    1.000
    N3488    N        0.59987    0.23417    0.36469    1.000
    Si3489   Si       0.61582    0.18112    0.42549    1.000
    Si3490   Si       0.59352    0.14687    0.24694    1.000
    Si3491   Si       0.62302    0.05890    0.46931    1.000
    N3492    N        0.58459    0.03601    0.47386    1.000
    Si3493   Si       0.59369    0.12758    0.38155    1.000
    N3494    N        0.60227    0.22377    0.43288    1.000
    Si3495   Si       0.62491    0.24251    0.46678    1.000
    N3496    N        0.58942    0.14705    0.42037    1.000
    Si3497   Si       0.63143    0.17540    0.49394    1.000
    N3498    N        0.63277    0.17811    0.38541    1.000
    Si3499   Si       0.60184    0.07009    0.54297    1.000
    N3500    N        0.62320    0.07097    0.58074    1.000
    N3501    N        0.62836    0.07371    0.51001    1.000
    N3502    N        0.59966    0.02121    0.61618    1.000
    Si3503   Si       0.59640    0.06518    0.61437    1.000
    N3504    N        0.58304    0.03015    0.54453    1.000
    N3505    N        0.61670    0.21503    0.50165    1.000
    Si3506   Si       0.58781    0.24474    0.51641    1.000
    N3507    N        0.58187    0.20743    0.60969    1.000
    N3508    N        0.59548    0.15155    0.49252    1.000
    N3509    N        0.58171    0.07320    0.72056    1.000
    Si3510   Si       0.61124    0.03966    0.71289    1.000
    N3511    N        0.60637    0.09481    0.64352    1.000
    N3512    N        0.60394    0.01159    0.68152    1.000
    Si3513   Si       0.58023    0.12930    0.64563    1.000
    N3514    N        0.57572    0.21116    0.67784    1.000
    Si3515   Si       0.58906    0.21556    0.71830    1.000
    N3516    N        0.61274    0.15749    0.65104    1.000
    Si3517   Si       0.60524    0.20150    0.64575    1.000
    Si3518   Si       0.61098    0.04126    0.78638    1.000
    N3519    N        0.61884    0.02064    0.82331    1.000
    N3520    N        0.61944    0.12099    0.76626    1.000
    Si3521   Si       0.58398    0.09559    0.75603    1.000
    Si3522   Si       0.58455    0.01778    0.84792    1.000
    N3523    N        0.62411    0.10385    0.84047    1.000
    N3524    N        0.61173    0.01653    0.75036    1.000
    N3525    N        0.57905    0.06904    0.78820    1.000
    Si3526   Si       0.62214    0.16367    0.76526    1.000
    Si3527   Si       0.61293    0.18673    0.84412    1.000
    N3528    N        0.62305    0.23055    0.85063    1.000
    N3529    N        0.58992    0.18356    0.74673    1.000
    N3530    N        0.63258    0.18012    0.80614    1.000
    Si3531   Si       0.60721    0.24946    0.95244    1.000
    Si3532   Si       0.62177    0.12137    0.87925    1.000
    Si3533   Si       0.61528    0.01878    0.90696    1.000
    N3534    N        0.59068    0.10370    0.90902    1.000
    Si3535   Si       0.60423    0.03877    0.97365    1.000
    N3536    N        0.62207    0.04900    0.93701    1.000
    Si3537   Si       0.62633    0.09251    0.93790    1.000
    N3538    N        0.58423    0.03718    0.88402    1.000
    N3539    N        0.63668    0.11036    0.97595    1.000
    Si3540   Si       0.62292    0.18078    0.91960    1.000
    N3541    N        0.62262    0.16501    0.88043    1.000
    N3542    N        0.58599    0.22466    0.98125    1.000
    N3543    N        0.59084    0.16388    0.94202    1.000
    N3544    N        0.61805    0.22468    0.91983    1.000
    N3545    N        0.59167    0.30600    0.01582    1.000
    Si3546   Si       0.62034    0.28255    0.04284    1.000
    Si3547   Si       0.59348    0.27691    0.10450    1.000
    N3548    N        0.63067    0.28316    0.08468    1.000
    N3549    N        0.60937    0.46902    0.07547    1.000
    N3550    N        0.59007    0.44030    0.01582    1.000
    Si3551   Si       0.60619    0.43011    0.05848    1.000
    Si3552   Si       0.63171    0.47124    0.11310    1.000
    Si3553   Si       0.63590    0.40003    0.11767    1.000
    N3554    N        0.63102    0.32016    0.19190    1.000
    N3555    N        0.59437    0.30966    0.13276    1.000
    Si3556   Si       0.60422    0.33152    0.22534    1.000
    N3557    N        0.62101    0.37269    0.22780    1.000
    Si3558   Si       0.62950    0.32884    0.14991    1.000
    N3559    N        0.62637    0.37290    0.15059    1.000
    N3560    N        0.61497    0.43446    0.13103    1.000
    N3561    N        0.59762    0.43657    0.23641    1.000
    N3562    N        0.58991    0.47257    0.18348    1.000
    Si3563   Si       0.62335    0.45491    0.20707    1.000
    Si3564   Si       0.59388    0.33685    0.35611    1.000
    Si3565   Si       0.61492    0.28317    0.26513    1.000
    N3566    N        0.62370    0.36492    0.34244    1.000
    Si3567   Si       0.59675    0.26910    0.33971    1.000
    N3568    N        0.58396    0.31409    0.26077    1.000
    N3569    N        0.62323    0.26643    0.30470    1.000
    N3570    N        0.61463    0.30085    0.36384    1.000
    N3571    N        0.57801    0.38573    0.28586    1.000
    Si3572   Si       0.60773    0.39587    0.31630    1.000
    N3573    N        0.61390    0.47954    0.29493    1.000
    N3574    N        0.59229    0.43004    0.34136    1.000
    Si3575   Si       0.61750    0.46628    0.33869    1.000
    Si3576   Si       0.60640    0.40025    0.25491    1.000
    Si3577   Si       0.59427    0.35847    0.42631    1.000
    Si3578   Si       0.60122    0.31586    0.49307    1.000
    N3579    N        0.60322    0.27321    0.48751    1.000
    N3580    N        0.58239    0.32829    0.45472    1.000
    N3581    N        0.60645    0.49527    0.36956    1.000
    Si3582   Si       0.61466    0.43030    0.44673    1.000
    N3583    N        0.59244    0.46517    0.43621    1.000
    Si3584   Si       0.58244    0.49181    0.40470    1.000
    N3585    N        0.60432    0.43561    0.48983    1.000
    N3586    N        0.58950    0.40145    0.42897    1.000
    N3587    N        0.63698    0.35127    0.41588    1.000
    N3588    N        0.62868    0.31957    0.55874    1.000
    Si3589   Si       0.58799    0.30606    0.55871    1.000
    N3590    N        0.58505    0.26245    0.55734    1.000
    N3591    N        0.62779    0.38463    0.53711    1.000
    N3592    N        0.59615    0.38412    0.60312    1.000
    N3593    N        0.62219    0.43998    0.56140    1.000
    Si3594   Si       0.61103    0.47517    0.58160    1.000
    Si3595   Si       0.62605    0.40048    0.57862    1.000
    Si3596   Si       0.63122    0.42520    0.52172    1.000
    N3597    N        0.59359    0.27323    0.62256    1.000
    Si3598   Si       0.57944    0.28910    0.72517    1.000
    N3599    N        0.59840    0.33640    0.64697    1.000
    N3600    N        0.60803    0.28239    0.69178    1.000
    Si3601   Si       0.62402    0.31746    0.67317    1.000
    Si3602   Si       0.58619    0.37689    0.64380    1.000
    Si3603   Si       0.63462    0.26357    0.62662    1.000
    N3604    N        0.59508    0.46261    0.62066    1.000
    Si3605   Si       0.61933    0.44774    0.65504    1.000
    N3606    N        0.61478    0.47533    0.69023    1.000
    N3607    N        0.61062    0.40604    0.66486    1.000
    N3608    N        0.61483    0.35201    0.81414    1.000
    N3609    N        0.61245    0.28261    0.81808    1.000
    Si3610   Si       0.59561    0.31388    0.79612    1.000
    Si3611   Si       0.61475    0.36448    0.85855    1.000
    N3612    N        0.60354    0.31652    0.75227    1.000
    Si3613   Si       0.59448    0.46998    0.90916    1.000
    Si3614   Si       0.58788    0.38574    0.80443    1.000
    N3615    N        0.62621    0.48229    0.76830    1.000
    Si3616   Si       0.58749    0.46267    0.77479    1.000
    N3617    N        0.58923    0.42915    0.80772    1.000
    N3618    N        0.59543    0.34033    0.88818    1.000
    Si3619   Si       0.59629    0.29985    0.90053    1.000
    Si3620   Si       0.59119    0.31389    0.97456    1.000
    N3621    N        0.62852    0.33157    0.95992    1.000
    N3622    N        0.57995    0.28375    0.94181    1.000
    N3623    N        0.59236    0.44540    0.87444    1.000
    Si3624   Si       0.60594    0.43754    0.97626    1.000
    N3625    N        0.60106    0.39336    0.96671    1.000
    N3626    N        0.58064    0.45612    0.94659    1.000
    Si3627   Si       0.58794    0.25563    0.84202    1.000
    N3628    N        0.59987    0.57678    0.01811    1.000
    N3629    N        0.59509    0.59627    0.08984    1.000
    Si3630   Si       0.61837    0.58060    0.05738    1.000
    N3631    N        0.62588    0.54033    0.07200    1.000
    Si3632   Si       0.57870    0.54061    0.00507    1.000
    Si3633   Si       0.59100    0.74702    0.07464    1.000
    Si3634   Si       0.60852    0.69911    0.02627    1.000
    N3635    N        0.60062    0.71678    0.10352    1.000
    N3636    N        0.61479    0.73978    0.03895    1.000
    Si3637   Si       0.62845    0.68486    0.09481    1.000
    N3638    N        0.63136    0.67261    0.05338    1.000
    Si3639   Si       0.61112    0.60926    0.12731    1.000
    Si3640   Si       0.59762    0.58689    0.20462    1.000
    N3641    N        0.58942    0.60541    0.16447    1.000
    Si3642   Si       0.60742    0.51954    0.23180    1.000
    N3643    N        0.60028    0.54414    0.19571    1.000
    Si3644   Si       0.58812    0.51324    0.16595    1.000
    N3645    N        0.62995    0.60635    0.22468    1.000
    N3646    N        0.61519    0.50633    0.13264    1.000
    Si3647   Si       0.60787    0.71380    0.21194    1.000
    N3648    N        0.62524    0.68369    0.23725    1.000
    N3649    N        0.61043    0.70381    0.17022    1.000
    N3650    N        0.62000    0.65224    0.12524    1.000
    Si3651   Si       0.61160    0.50519    0.05023    1.000
    Si3652   Si       0.61561    0.56325    0.30269    1.000
    N3653    N        0.62526    0.54430    0.26272    1.000
    Si3654   Si       0.63506    0.52837    0.36767    1.000
    Si3655   Si       0.57744    0.62749    0.30634    1.000
    N3656    N        0.58957    0.72311    0.28300    1.000
    N3657    N        0.61442    0.65297    0.30600    1.000
    Si3658   Si       0.60924    0.66629    0.35255    1.000
    Si3659   Si       0.60062    0.73804    0.32295    1.000
    Si3660   Si       0.62274    0.69320    0.28107    1.000
    N3661    N        0.62383    0.70472    0.33689    1.000
    Si3662   Si       0.58366    0.59495    0.37453    1.000
    Si3663   Si       0.61627    0.62238    0.44830    1.000
    N3664    N        0.61272    0.59373    0.48021    1.000
    N3665    N        0.58771    0.60274    0.41868    1.000
    Si3666   Si       0.60518    0.56191    0.42178    1.000
    N3667    N        0.61588    0.56480    0.37720    1.000
    N3668    N        0.57636    0.72007    0.48404    1.000
    Si3669   Si       0.61285    0.69540    0.48676    1.000
    N3670    N        0.59390    0.75613    0.42224    1.000
    N3671    N        0.62003    0.66327    0.46105    1.000
    N3672    N        0.63916    0.53200    0.32450    1.000
    N3673    N        0.63710    0.54578    0.44334    1.000
    N3674    N        0.61896    0.53510    0.51568    1.000
    N3675    N        0.62715    0.57113    0.57658    1.000
    Si3676   Si       0.58746    0.58920    0.57884    1.000
    N3677    N        0.58405    0.61556    0.54272    1.000
    N3678    N        0.58837    0.50803    0.56198    1.000
    Si3679   Si       0.57663    0.52560    0.52095    1.000
    Si3680   Si       0.63422    0.53134    0.55672    1.000
    N3681    N        0.58177    0.60606    0.61818    1.000
    Si3682   Si       0.57596    0.59991    0.50192    1.000
    N3683    N        0.61584    0.68101    0.52781    1.000
    Si3684   Si       0.62256    0.71896    0.55054    1.000
    Si3685   Si       0.60336    0.69169    0.61488    1.000
    Si3686   Si       0.58410    0.65882    0.54585    1.000
    N3687    N        0.57975    0.73100    0.55250    1.000
    Si3688   Si       0.61508    0.67730    0.68506    1.000
    N3689    N        0.59394    0.57827    0.70765    1.000
    Si3690   Si       0.59615    0.61608    0.72967    1.000
    Si3691   Si       0.59101    0.59815    0.66415    1.000
    N3692    N        0.63519    0.60159    0.65628    1.000
    N3693    N        0.62697    0.66788    0.64287    1.000
    N3694    N        0.58787    0.64160    0.69377    1.000
    N3695    N        0.59389    0.71278    0.69117    1.000
    Si3696   Si       0.57765    0.75111    0.66567    1.000
    N3697    N        0.58246    0.72979    0.62568    1.000
    N3698    N        0.63550    0.71066    0.59088    1.000
    N3699    N        0.57784    0.66854    0.58879    1.000
    Si3700   Si       0.62433    0.55452    0.84516    1.000
    N3701    N        0.58869    0.53757    0.76574    1.000
    N3702    N        0.58306    0.53539    0.84195    1.000
    Si3703   Si       0.63207    0.52864    0.77322    1.000
    N3704    N        0.62536    0.59083    0.86871    1.000
    N3705    N        0.62621    0.62916    0.81026    1.000
    Si3706   Si       0.61988    0.72004    0.78221    1.000
    N3707    N        0.59262    0.69700    0.80917    1.000
    Si3708   Si       0.60100    0.65795    0.78849    1.000
    N3709    N        0.60288    0.74776    0.75385    1.000
    N3710    N        0.59960    0.75075    0.86267    1.000
    Si3711   Si       0.57540    0.65649    0.98166    1.000
    Si3712   Si       0.60594    0.53648    0.93527    1.000
    Si3713   Si       0.61679    0.59265    0.98059    1.000
    N3714    N        0.60636    0.58084    0.94089    1.000
    Si3715   Si       0.60008    0.60089    0.90222    1.000
    N3716    N        0.60569    0.52266    0.97607    1.000
    N3717    N        0.58381    0.51261    0.90780    1.000
    Si3718   Si       0.63042    0.67259    0.90346    1.000
    N3719    N        0.61240    0.63510    0.97884    1.000
    Si3720   Si       0.62025    0.73095    0.95947    1.000
    N3721    N        0.62553    0.69728    0.98487    1.000
    N3722    N        0.59752    0.64353    0.90064    1.000
    N3723    N        0.62981    0.71594    0.91873    1.000
    Si3724   Si       0.59397    0.73165    0.90070    1.000
    N3725    N        0.58044    0.74450    0.94267    1.000
    N3726    N        0.60636    0.78770    0.08603    1.000
    Si3727   Si       0.59629    0.81184    0.05007    1.000
    N3728    N        0.63111    0.81467    0.02676    1.000
    N3729    N        0.58525    0.85281    0.06185    1.000
    N3730    N        0.60197    0.87488    0.00058    1.000
    N3731    N        0.60224    0.98738    0.03799    1.000
    Si3732   Si       0.61644    0.96540    0.07229    1.000
    N3733    N        0.63050    0.99087    0.10525    1.000
    N3734    N        0.57889    0.95639    0.09669    1.000
    Si3735   Si       0.61603    0.97568    0.19227    1.000
    N3736    N        0.62090    0.78474    0.15375    1.000
    Si3737   Si       0.59140    0.79069    0.23159    1.000
    N3738    N        0.61738    0.86490    0.18950    1.000
    N3739    N        0.58313    0.98087    0.22705    1.000
    Si3740   Si       0.61609    0.90034    0.21432    1.000
    N3741    N        0.58072    0.98662    0.16325    1.000
    N3742    N        0.62832    0.93291    0.18808    1.000
    Si3743   Si       0.58557    0.99020    0.12153    1.000
    Si3744   Si       0.63641    0.79898    0.11546    1.000
    Si3745   Si       0.57788    0.85266    0.17396    1.000
    N3746    N        0.61629    0.75772    0.21550    1.000
    N3747    N        0.60636    0.80508    0.26942    1.000
    N3748    N        0.61977    0.82787    0.33343    1.000
    N3749    N        0.60432    0.87222    0.28780    1.000
    Si3750   Si       0.58453    0.84465    0.31478    1.000
    Si3751   Si       0.63238    0.80173    0.30224    1.000
    N3752    N        0.61685    0.92063    0.32675    1.000
    N3753    N        0.61297    0.97917    0.35671    1.000
    N3754    N        0.62412    0.99473    0.29314    1.000
    Si3755   Si       0.61244    0.00289    0.25147    1.000
    Si3756   Si       0.63536    0.90166    0.29164    1.000
    N3757    N        0.61550    0.86630    0.39066    1.000
    N3758    N        0.59386    0.81955    0.45495    1.000
    Si3759   Si       0.59637    0.79810    0.41765    1.000
    Si3760   Si       0.62934    0.82055    0.47968    1.000
    Si3761   Si       0.57922    0.96893    0.38012    1.000
    N3762    N        0.58908    0.93243    0.39735    1.000
    Si3763   Si       0.62189    0.90607    0.40502    1.000
    Si3764   Si       0.59858    0.00663    0.44439    1.000
    N3765    N        0.60983    0.90258    0.44658    1.000
    N3766    N        0.60778    0.96968    0.46125    1.000
    Si3767   Si       0.58503    0.93760    0.44276    1.000
    N3768    N        0.60613    0.78180    0.58443    1.000
    Si3769   Si       0.61095    0.85422    0.54394    1.000
    Si3770   Si       0.60419    0.78208    0.53791    1.000
    N3771    N        0.62354    0.81923    0.52307    1.000
    Si3772   Si       0.62698    0.86853    0.61792    1.000
    N3773    N        0.63476    0.86647    0.57588    1.000
    N3774    N        0.60925    0.88599    0.51587    1.000
    N3775    N        0.61679    0.96865    0.58502    1.000
    Si3776   Si       0.60417    0.93433    0.60909    1.000
    Si3777   Si       0.58840    0.00291    0.57898    1.000
    N3778    N        0.58473    0.87197    0.62499    1.000
    N3779    N        0.62204    0.86503    0.68318    1.000
    N3780    N        0.61319    0.81447    0.72400    1.000
    N3781    N        0.61250    0.77609    0.66897    1.000
    Si3782   Si       0.62053    0.85711    0.72753    1.000
    Si3783   Si       0.62716    0.81842    0.67632    1.000
    Si3784   Si       0.58044    0.87078    0.66750    1.000
    N3785    N        0.59125    0.95353    0.64696    1.000
    Si3786   Si       0.61423    0.98985    0.64475    1.000
    N3787    N        0.60990    0.80188    0.79337    1.000
    N3788    N        0.61238    0.86323    0.82754    1.000
    Si3789   Si       0.62358    0.78619    0.75736    1.000
    Si3790   Si       0.60697    0.82087    0.83007    1.000
    N3791    N        0.59185    0.87810    0.75267    1.000
    N3792    N        0.59133    0.89649    0.93268    1.000
    Si3793   Si       0.60743    0.90891    0.77917    1.000
    N3794    N        0.62179    0.94815    0.76488    1.000
    Si3795   Si       0.59673    0.97785    0.75282    1.000
    N3796    N        0.58258    0.97517    0.85537    1.000
    N3797    N        0.58018    0.92069    0.81352    1.000
    N3798    N        0.59632    0.81381    0.91036    1.000
    Si3799   Si       0.61291    0.88581    0.89553    1.000
    N3800    N        0.62655    0.92547    0.88251    1.000
    N3801    N        0.60610    0.97988    0.92627    1.000
    Si3802   Si       0.59934    0.90958    0.97373    1.000
    Si3803   Si       0.59554    0.95405    0.89244    1.000
    Si3804   Si       0.62949    0.97155    0.96097    1.000
    Si3805   Si       0.67188    0.07257    0.06155    1.000
    N3806    N        0.64848    0.10739    0.04815    1.000
    N3807    N        0.64539    0.03926    0.06397    1.000
    N3808    N        0.66476    0.12908    0.11164    1.000
    Si3809   Si       0.66944    0.14091    0.06829    1.000
    Si3810   Si       0.67269    0.18638    0.02013    1.000
    N3811    N        0.66818    0.18428    0.06394    1.000
    Si3812   Si       0.67971    0.20598    0.10168    1.000
    N3813    N        0.68809    0.14738    0.00502    1.000
    N3814    N        0.69003    0.24847    0.10231    1.000
    N3815    N        0.68747    0.22326    0.00497    1.000
    Si3816   Si       0.66051    0.25662    0.00317    1.000
    Si3817   Si       0.67454    0.09211    0.12827    1.000
    N3818    N        0.65585    0.05326    0.20143    1.000
    Si3819   Si       0.67054    0.01223    0.20296    1.000
    N3820    N        0.63426    0.06904    0.12935    1.000
    N3821    N        0.69381    0.06667    0.10041    1.000
    Si3822   Si       0.68090    0.25305    0.17924    1.000
    N3823    N        0.64469    0.19603    0.12558    1.000
    N3824    N        0.66676    0.22390    0.20872    1.000
    Si3825   Si       0.69397    0.22453    0.24156    1.000
    Si3826   Si       0.67050    0.11911    0.30268    1.000
    Si3827   Si       0.67680    0.03348    0.36008    1.000
    N3828    N        0.69160    0.01249    0.32278    1.000
    N3829    N        0.63626    0.04208    0.34782    1.000
    N3830    N        0.67959    0.13989    0.33958    1.000
    N3831    N        0.66804    0.22950    0.34395    1.000
    N3832    N        0.66999    0.22287    0.27812    1.000
    N3833    N        0.67032    0.15206    0.27624    1.000
    Si3834   Si       0.64524    0.18494    0.28277    1.000
    Si3835   Si       0.66322    0.25227    0.30897    1.000
    N3836    N        0.68873    0.06826    0.38701    1.000
    Si3837   Si       0.66782    0.09714    0.41345    1.000
    N3838    N        0.64747    0.09323    0.45320    1.000
    Si3839   Si       0.67563    0.01362    0.43426    1.000
    N3840    N        0.63518    0.02643    0.44033    1.000
    Si3841   Si       0.65587    0.10656    0.49421    1.000
    Si3842   Si       0.68665    0.25587    0.43451    1.000
    N3843    N        0.68659    0.21818    0.41080    1.000
    N3844    N        0.68720    0.13696    0.41177    1.000
    N3845    N        0.66896    0.24649    0.47249    1.000
    Si3846   Si       0.68201    0.17992    0.42863    1.000
    Si3847   Si       0.66084    0.14514    0.37622    1.000
    N3848    N        0.64766    0.17796    0.45298    1.000
    N3849    N        0.63376    0.09431    0.30681    1.000
    N3850    N        0.63526    0.11134    0.38223    1.000
    N3851    N        0.68518    0.00699    0.39224    1.000
    Si3852   Si       0.66192    0.07739    0.59874    1.000
    N3853    N        0.66197    0.12019    0.60849    1.000
    Si3854   Si       0.67979    0.22541    0.57648    1.000
    N3855    N        0.67439    0.19220    0.60239    1.000
    N3856    N        0.67998    0.21156    0.53530    1.000
    N3857    N        0.66136    0.14660    0.50979    1.000
    Si3858   Si       0.68513    0.24951    0.51191    1.000
    Si3859   Si       0.69051    0.15245    0.60039    1.000
    Si3860   Si       0.69249    0.17107    0.52771    1.000
    N3861    N        0.65372    0.25768    0.58871    1.000
    Si3862   Si       0.68164    0.01028    0.62271    1.000
    N3863    N        0.64991    0.05798    0.70979    1.000
    Si3864   Si       0.67620    0.06619    0.67659    1.000
    N3865    N        0.66650    0.05119    0.63549    1.000
    N3866    N        0.67432    0.10877    0.67033    1.000
    Si3867   Si       0.64209    0.12391    0.64665    1.000
    N3868    N        0.67882    0.17399    0.67839    1.000
    N3869    N        0.69347    0.09851    0.74032    1.000
    N3870    N        0.64088    0.22786    0.65196    1.000
    Si3871   Si       0.64268    0.25810    0.68963    1.000
    N3872    N        0.63375    0.22315    0.71505    1.000
    Si3873   Si       0.66631    0.19314    0.71386    1.000
    Si3874   Si       0.67597    0.20374    0.64542    1.000
    N3875    N        0.68026    0.12099    0.80232    1.000
    N3876    N        0.64830    0.06496    0.78266    1.000
    Si3877   Si       0.64154    0.10331    0.80155    1.000
    Si3878   Si       0.67168    0.19370    0.79012    1.000
    N3879    N        0.66216    0.23719    0.78184    1.000
    N3880    N        0.66386    0.17131    0.75213    1.000
    Si3881   Si       0.68464    0.25184    0.74766    1.000
    Si3882   Si       0.69314    0.13656    0.76373    1.000
    Si3883   Si       0.64741    0.25410    0.81833    1.000
    N3884    N        0.65357    0.10669    0.90762    1.000
    N3885    N        0.66222    0.17246    0.94031    1.000
    N3886    N        0.67857    0.21601    0.88739    1.000
    Si3887   Si       0.65347    0.14987    0.97633    1.000
    Si3888   Si       0.64445    0.24297    0.88966    1.000
    N3889    N        0.69353    0.02154    0.82983    1.000
    Si3890   Si       0.69533    0.18595    0.91554    1.000
    Si3891   Si       0.67063    0.05946    0.74629    1.000
    N3892    N        0.66013    0.29362    0.02622    1.000
    Si3893   Si       0.66106    0.27664    0.11355    1.000
    N3894    N        0.68343    0.34842    0.07133    1.000
    Si3895   Si       0.68866    0.35151    0.11387    1.000
    N3896    N        0.65560    0.37785    0.01083    1.000
    Si3897   Si       0.69123    0.31735    0.04199    1.000
    Si3898   Si       0.67137    0.38646    0.04991    1.000
    N3899    N        0.67386    0.46366    0.10433    1.000
    N3900    N        0.64655    0.49726    0.02478    1.000
    N3901    N        0.63876    0.40370    0.07436    1.000
    Si3902   Si       0.69280    0.41822    0.21466    1.000
    N3903    N        0.66629    0.31798    0.12948    1.000
    N3904    N        0.67848    0.36140    0.19021    1.000
    Si3905   Si       0.66925    0.32420    0.21455    1.000
    N3906    N        0.69124    0.29084    0.19608    1.000
    Si3907   Si       0.64044    0.38418    0.18929    1.000
    N3908    N        0.68153    0.39350    0.12043    1.000
    N3909    N        0.64176    0.49191    0.22476    1.000
    N3910    N        0.65343    0.42581    0.19818    1.000
    Si3911   Si       0.68413    0.49287    0.23441    1.000
    N3912    N        0.64866    0.25821    0.15057    1.000
    Si3913   Si       0.66660    0.35887    0.34447    1.000
    N3914    N        0.68039    0.35569    0.30319    1.000
    N3915    N        0.64946    0.30948    0.25399    1.000
    Si3916   Si       0.68283    0.31738    0.27976    1.000
    N3917    N        0.67973    0.32331    0.36571    1.000
    N3918    N        0.69214    0.28622    0.30814    1.000
    Si3919   Si       0.68039    0.39177    0.28309    1.000
    N3920    N        0.66214    0.46530    0.34155    1.000
    Si3921   Si       0.68808    0.42883    0.34533    1.000
    Si3922   Si       0.69460    0.48973    0.36095    1.000
    N3923    N        0.63908    0.40410    0.28599    1.000
    N3924    N        0.67879    0.39280    0.36996    1.000
    N3925    N        0.66621    0.48194    0.45340    1.000
    Si3926   Si       0.66266    0.33347    0.44969    1.000
    Si3927   Si       0.64542    0.31177    0.39147    1.000
    N3928    N        0.66419    0.29341    0.42606    1.000
    N3929    N        0.64166    0.33314    0.48881    1.000
    N3930    N        0.69416    0.36033    0.43713    1.000
    Si3931   Si       0.66851    0.38479    0.41410    1.000
    N3932    N        0.65536    0.41802    0.43772    1.000
    Si3933   Si       0.67944    0.44234    0.46580    1.000
    N3934    N        0.68415    0.50333    0.27637    1.000
    Si3935   Si       0.66431    0.29771    0.57058    1.000
    N3936    N        0.68257    0.32166    0.60196    1.000
    N3937    N        0.68755    0.35050    0.54188    1.000
    N3938    N        0.68038    0.28759    0.53205    1.000
    Si3939   Si       0.64800    0.34715    0.52956    1.000
    Si3940   Si       0.69349    0.35955    0.58479    1.000
    N3941    N        0.66550    0.39591    0.59460    1.000
    N3942    N        0.67101    0.42972    0.50723    1.000
    N3943    N        0.64424    0.50414    0.59195    1.000
    Si3944   Si       0.64643    0.32059    0.73766    1.000
    N3945    N        0.65624    0.29107    0.65546    1.000
    N3946    N        0.66289    0.28136    0.72444    1.000
    N3947    N        0.63718    0.34838    0.70137    1.000
    N3948    N        0.67648    0.39589    0.66143    1.000
    Si3949   Si       0.64741    0.50858    0.69765    1.000
    Si3950   Si       0.64159    0.38996    0.68958    1.000
    N3951    N        0.65084    0.41487    0.72282    1.000
    Si3952   Si       0.67945    0.42162    0.62579    1.000
    N3953    N        0.68010    0.48645    0.71728    1.000
    Si3954   Si       0.66801    0.49829    0.62752    1.000
    N3955    N        0.65841    0.45790    0.63877    1.000
    N3956    N        0.67166    0.32531    0.77270    1.000
    Si3957   Si       0.65877    0.35120    0.80412    1.000
    N3958    N        0.67740    0.34135    0.84124    1.000
    N3959    N        0.68149    0.26762    0.84031    1.000
    Si3960   Si       0.68465    0.38061    0.86078    1.000
    N3961    N        0.66704    0.38935    0.78638    1.000
    N3962    N        0.65640    0.45514    0.83042    1.000
    Si3963   Si       0.67696    0.49753    0.82623    1.000
    Si3964   Si       0.67870    0.42573    0.80870    1.000
    Si3965   Si       0.66631    0.47701    0.75835    1.000
    N3966    N        0.64269    0.39664    0.86152    1.000
    N3967    N        0.69155    0.44451    0.77119    1.000
    Si3968   Si       0.68432    0.40780    0.74816    1.000
    Si3969   Si       0.65635    0.30220    0.93864    1.000
    N3970    N        0.64405    0.26702    0.96645    1.000
    Si3971   Si       0.63890    0.37269    0.97134    1.000
    N3972    N        0.63730    0.28476    0.90357    1.000
    Si3973   Si       0.64199    0.50038    0.98112    1.000
    Si3974   Si       0.66168    0.50571    0.89579    1.000
    N3975    N        0.66149    0.39481    0.94186    1.000
    Si3976   Si       0.66229    0.43808    0.93313    1.000
    N3977    N        0.64278    0.45791    0.96748    1.000
    N3978    N        0.64482    0.46425    0.90093    1.000
    Si3979   Si       0.63437    0.44064    0.86420    1.000
    N3980    N        0.65218    0.60539    0.04528    1.000
    Si3981   Si       0.68048    0.58430    0.02003    1.000
    Si3982   Si       0.68728    0.51092    0.02674    1.000
    Si3983   Si       0.63783    0.54064    0.11333    1.000
    N3984    N        0.69179    0.55051    0.04348    1.000
    Si3985   Si       0.66520    0.64891    0.04308    1.000
    N3986    N        0.67725    0.65429    0.00181    1.000
    N3987    N        0.66177    0.69733    0.12052    1.000
    N3988    N        0.68147    0.53365    0.11608    1.000
    N3989    N        0.64339    0.57940    0.13230    1.000
    Si3990   Si       0.68674    0.57482    0.13511    1.000
    Si3991   Si       0.68237    0.73703    0.12993    1.000
    N3992    N        0.67416    0.74462    0.17207    1.000
    Si3993   Si       0.64055    0.67676    0.15359    1.000
    N3994    N        0.65955    0.65356    0.18152    1.000
    Si3995   Si       0.64632    0.64695    0.22243    1.000
    N3996    N        0.69333    0.57925    0.24874    1.000
    Si3997   Si       0.65177    0.58600    0.25778    1.000
    N3998    N        0.64354    0.59526    0.29833    1.000
    Si3999   Si       0.64337    0.50914    0.28747    1.000
    Si4000   Si       0.65073    0.62858    0.32348    1.000
    Si4001   Si       0.65934    0.75494    0.49065    1.000
    N4002    N        0.67820    0.68199    0.41507    1.000
    N4003    N        0.69172    0.75647    0.41364    1.000
    Si4004   Si       0.66184    0.72582    0.32788    1.000
    N4005    N        0.66768    0.70452    0.28803    1.000
    N4006    N        0.69017    0.63977    0.31920    1.000
    N4007    N        0.67965    0.64163    0.25012    1.000
    Si4008   Si       0.68973    0.66647    0.28445    1.000
    N4009    N        0.64175    0.64014    0.36552    1.000
    N4010    N        0.65187    0.71513    0.47538    1.000
    N4011    N        0.67025    0.51566    0.38847    1.000
    Si4012   Si       0.67033    0.51891    0.43108    1.000
    N4013    N        0.65836    0.61723    0.43286    1.000
    Si4014   Si       0.68650    0.61363    0.46434    1.000
    N4015    N        0.67445    0.58413    0.49385    1.000
    Si4016   Si       0.67052    0.64172    0.39883    1.000
    Si4017   Si       0.63999    0.56062    0.48540    1.000
    N4018    N        0.69049    0.65373    0.48005    1.000
    Si4019   Si       0.66299    0.67834    0.45531    1.000
    Si4020   Si       0.66955    0.57752    0.58285    1.000
    N4021    N        0.67993    0.54145    0.55622    1.000
    N4022    N        0.69271    0.60431    0.55607    1.000
    Si4023   Si       0.67169    0.72629    0.60683    1.000
    N4024    N        0.63830    0.75324    0.52968    1.000
    N4025    N        0.69357    0.73505    0.56971    1.000
    Si4026   Si       0.65733    0.65689    0.73922    1.000
    N4027    N        0.68721    0.57463    0.62154    1.000
    N4028    N        0.65773    0.52695    0.65924    1.000
    Si4029   Si       0.66459    0.56979    0.65804    1.000
    N4030    N        0.68388    0.58399    0.69311    1.000
    Si4031   Si       0.65990    0.57900    0.72876    1.000
    N4032    N        0.64623    0.53816    0.73055    1.000
    N4033    N        0.69300    0.70305    0.63848    1.000
    Si4034   Si       0.68593    0.70003    0.68175    1.000
    N4035    N        0.65676    0.66833    0.69599    1.000
    N4036    N        0.66992    0.73847    0.69543    1.000
    Si4037   Si       0.65584    0.63920    0.66057    1.000
    Si4038   Si       0.69103    0.75505    0.73010    1.000
    Si4039   Si       0.65552    0.59883    0.79519    1.000
    N4040    N        0.65252    0.51982    0.85585    1.000
    N4041    N        0.68094    0.60608    0.82996    1.000
    Si4042   Si       0.64433    0.62466    0.84943    1.000
    N4043    N        0.68713    0.58121    0.76529    1.000
    N4044    N        0.67579    0.51391    0.78408    1.000
    N4045    N        0.63531    0.56229    0.80507    1.000
    N4046    N        0.64826    0.74120    0.80759    1.000
    N4047    N        0.65112    0.66463    0.86469    1.000
    Si4048   Si       0.68391    0.69543    0.85801    1.000
    Si4049   Si       0.69122    0.73797    0.79896    1.000
    N4050    N        0.66636    0.73403    0.86747    1.000
    Si4051   Si       0.67745    0.55229    0.95261    1.000
    N4052    N        0.68624    0.51694    0.97886    1.000
    N4053    N        0.66084    0.58205    0.98130    1.000
    N4054    N        0.64809    0.53023    0.92739    1.000
    Si4055   Si       0.64438    0.66064    0.97324    1.000
    N4056    N        0.65906    0.65979    0.93289    1.000
    Si4057   Si       0.66678    0.74082    0.90971    1.000
    N4058    N        0.69719    0.72028    0.93610    1.000
    N4059    N        0.63056    0.68122    0.76408    1.000
    N4060    N        0.63958    0.61611    0.73884    1.000
    N4061    N        0.67120    0.77251    0.10712    1.000
    N4062    N        0.68346    0.76731    0.03382    1.000
    Si4063   Si       0.69026    0.85073    0.10676    1.000
    Si4064   Si       0.64071    0.77263    0.02275    1.000
    N4065    N        0.66405    0.88022    0.02019    1.000
    N4066    N        0.69168    0.82730    0.07016    1.000
    Si4067   Si       0.69329    0.86426    0.04648    1.000
    Si4068   Si       0.63694    0.84999    0.00181    1.000
    N4069    N        0.64623    0.98664    0.22978    1.000
    N4070    N        0.68642    0.88895    0.08369    1.000
    Si4071   Si       0.67927    0.92972    0.08752    1.000
    Si4072   Si       0.66122    0.92280    0.01739    1.000
    N4073    N        0.64878    0.93944    0.05720    1.000
    N4074    N        0.65442    0.83609    0.12655    1.000
    N4075    N        0.66770    0.81303    0.19548    1.000
    Si4076   Si       0.65158    0.84562    0.17146    1.000
    Si4077   Si       0.64515    0.77529    0.18780    1.000
    N4078    N        0.68410    0.76270    0.24019    1.000
    N4079    N        0.68169    0.87748    0.16961    1.000
    Si4080   Si       0.66295    0.98021    0.13143    1.000
    Si4081   Si       0.66596    0.94721    0.23379    1.000
    Si4082   Si       0.66845    0.91993    0.16980    1.000
    N4083    N        0.64965    0.99439    0.16902    1.000
    N4084    N        0.67196    0.93728    0.12998    1.000
    N4085    N        0.69382    0.93977    0.19993    1.000
    Si4086   Si       0.69251    0.78403    0.07251    1.000
    N4087    N        0.67282    0.81433    0.29466    1.000
    N4088    N        0.67965    0.84868    0.35728    1.000
    Si4089   Si       0.68861    0.84950    0.31280    1.000
    N4090    N        0.63852    0.76110    0.31877    1.000
    N4091    N        0.67675    0.88974    0.29859    1.000
    N4092    N        0.67304    0.95222    0.32953    1.000
    Si4093   Si       0.66711    0.98369    0.29984    1.000
    N4094    N        0.69097    0.95831    0.27058    1.000
    Si4095   Si       0.64010    0.94671    0.35694    1.000
    N4096    N        0.63976    0.91695    0.24916    1.000
    Si4097   Si       0.64014    0.83653    0.37075    1.000
    N4098    N        0.65337    0.85473    0.46926    1.000
    N4099    N        0.64846    0.78513    0.46430    1.000
    Si4100   Si       0.66478    0.78797    0.42493    1.000
    N4101    N        0.63554    0.80352    0.39840    1.000
    Si4102   Si       0.63272    0.89225    0.48211    1.000
    N4103    N        0.68104    0.98396    0.46433    1.000
    N4104    N        0.65713    0.92690    0.48782    1.000
    Si4105   Si       0.64514    0.96863    0.48248    1.000
    N4106    N        0.65673    0.92895    0.39223    1.000
    N4107    N        0.67456    0.80316    0.57649    1.000
    Si4108   Si       0.67837    0.76917    0.54836    1.000
    Si4109   Si       0.64257    0.79651    0.60415    1.000
    N4110    N        0.68833    0.88415    0.53005    1.000
    Si4111   Si       0.66812    0.89473    0.57031    1.000
    Si4112   Si       0.65467    0.97661    0.56280    1.000
    N4113    N        0.67236    0.93576    0.56123    1.000
    N4114    N        0.64455    0.98486    0.52248    1.000
    Si4115   Si       0.68482    0.92661    0.52076    1.000
    N4116    N        0.68186    0.00555    0.57987    1.000
    N4117    N        0.64154    0.91285    0.62043    1.000
    Si4118   Si       0.65363    0.76562    0.66834    1.000
    N4119    N        0.66999    0.80399    0.67796    1.000
    N4120    N        0.66167    0.86752    0.73153    1.000
    N4121    N        0.68966    0.86840    0.65953    1.000
    N4122    N        0.66146    0.76325    0.62651    1.000
    N4123    N        0.66594    0.92527    0.68588    1.000
    N4124    N        0.65505    0.97876    0.63950    1.000
    Si4125   Si       0.66872    0.93865    0.64499    1.000
    Si4126   Si       0.66272    0.88340    0.68983    1.000
    N4127    N        0.63201    0.82651    0.63136    1.000
    N4128    N        0.67233    0.84151    0.79857    1.000
    Si4129   Si       0.65571    0.87166    0.82241    1.000
    N4130    N        0.66998    0.78363    0.75516    1.000
    Si4131   Si       0.67959    0.87360    0.76888    1.000
    Si4132   Si       0.63820    0.75890    0.84680    1.000
    Si4133   Si       0.69208    0.80550    0.78588    1.000
    N4134    N        0.65843    0.95839    0.82941    1.000
    Si4135   Si       0.66020    0.94588    0.78581    1.000
    N4136    N        0.65124    0.90096    0.78940    1.000
    Si4137   Si       0.66494    0.93103    0.86436    1.000
    N4138    N        0.68186    0.89405    0.84700    1.000
    Si4139   Si       0.65579    0.00152    0.83957    1.000
    N4140    N        0.65342    0.84006    0.96474    1.000
    N4141    N        0.64507    0.85755    0.89948    1.000
    Si4142   Si       0.66149    0.79625    0.95923    1.000
    Si4143   Si       0.67215    0.86207    0.93401    1.000
    N4144    N        0.65617    0.78203    0.91875    1.000
    N4145    N        0.63966    0.76431    0.98010    1.000
    N4146    N        0.64870    0.00576    0.88227    1.000
    N4147    N        0.68545    0.90237    0.94410    1.000
    Si4148   Si       0.68037    0.00436    0.97956    1.000
    N4149    N        0.67360    0.97657    0.94693    1.000
    N4150    N        0.69442    0.95355    0.88765    1.000
    Si4151   Si       0.68166    0.99086    0.90585    1.000
    N4152    N        0.63618    0.00843    0.98757    1.000
    N4153    N        0.63705    0.93292    0.98114    1.000
    N4154    N        0.63769    0.80179    0.85377    1.000
    Si4155   Si       0.63743    0.81609    0.89689    1.000
    Si4156   Si       0.71826    0.04045    0.00882    1.000
    Si4157   Si       0.71225    0.11654    0.02479    1.000
    N4158    N        0.69783    0.07400    0.02628    1.000
    Si4159   Si       0.71814    0.03608    0.11743    1.000
    N4160    N        0.71143    0.13262    0.06453    1.000
    Si4161   Si       0.73411    0.20083    0.15075    1.000
    Si4162   Si       0.73505    0.15392    0.09307    1.000
    N4163    N        0.71624    0.18759    0.11443    1.000
    N4164    N        0.75164    0.23740    0.06338    1.000
    N4165    N        0.74735    0.12268    0.12100    1.000
    Si4166   Si       0.69514    0.06851    0.19127    1.000
    N4167    N        0.71753    0.07341    0.22637    1.000
    Si4168   Si       0.73231    0.12447    0.16375    1.000
    Si4169   Si       0.74107    0.01733    0.19193    1.000
    N4170    N        0.71961    0.04238    0.16247    1.000
    N4171    N        0.69564    0.10359    0.16586    1.000
    N4172    N        0.72594    0.19561    0.24028    1.000
    N4173    N        0.73207    0.13617    0.23858    1.000
    N4174    N        0.72013    0.23820    0.16870    1.000
    N4175    N        0.73246    0.16571    0.17567    1.000
    Si4176   Si       0.74884    0.16746    0.21591    1.000
    N4177    N        0.75228    0.11471    0.00994    1.000
    N4178    N        0.75272    0.02177    0.09125    1.000
    N4179    N        0.74873    0.18747    0.01112    1.000
    Si4180   Si       0.74273    0.08946    0.31772    1.000
    Si4181   Si       0.73135    0.09764    0.25737    1.000
    N4182    N        0.70681    0.09730    0.29289    1.000
    N4183    N        0.74485    0.12011    0.34554    1.000
    Si4184   Si       0.73550    0.01319    0.31698    1.000
    N4185    N        0.75018    0.05107    0.33270    1.000
    Si4186   Si       0.71915    0.15412    0.33877    1.000
    N4187    N        0.73372    0.16941    0.30253    1.000
    Si4188   Si       0.71092    0.16226    0.26718    1.000
    N4189    N        0.72559    0.18763    0.36580    1.000
    N4190    N        0.74867    0.02709    0.39276    1.000
    Si4191   Si       0.71227    0.05488    0.48642    1.000
    N4192    N        0.70186    0.04547    0.44492    1.000
    N4193    N        0.74215    0.09513    0.41141    1.000
    Si4194   Si       0.72325    0.05586    0.41065    1.000
    Si4195   Si       0.70150    0.22293    0.37054    1.000
    Si4196   Si       0.73271    0.13786    0.42719    1.000
    Si4197   Si       0.75014    0.17339    0.47647    1.000
    N4198    N        0.72115    0.17447    0.44587    1.000
    Si4199   Si       0.75227    0.25588    0.40052    1.000
    N4200    N        0.75050    0.00704    0.27680    1.000
    N4201    N        0.71119    0.02256    0.51707    1.000
    Si4202   Si       0.71004    0.02993    0.55997    1.000
    Si4203   Si       0.71301    0.10049    0.54278    1.000
    N4204    N        0.75045    0.02604    0.58056    1.000
    N4205    N        0.69418    0.09011    0.50456    1.000
    N4206    N        0.69567    0.07283    0.57162    1.000
    N4207    N        0.73091    0.25266    0.50761    1.000
    N4208    N        0.70615    0.14230    0.56131    1.000
    N4209    N        0.73343    0.17209    0.51512    1.000
    N4210    N        0.71958    0.24490    0.58151    1.000
    Si4211   Si       0.74870    0.15015    0.55038    1.000
    Si4212   Si       0.72860    0.08712    0.71744    1.000
    N4213    N        0.73611    0.12160    0.69216    1.000
    N4214    N        0.71561    0.05459    0.69156    1.000
    Si4215   Si       0.73884    0.01940    0.67998    1.000
    Si4216   Si       0.72890    0.23279    0.69037    1.000
    Si4217   Si       0.70506    0.14147    0.66970    1.000
    N4218    N        0.72037    0.15316    0.63116    1.000
    N4219    N        0.71134    0.22615    0.65267    1.000
    Si4220   Si       0.73560    0.24524    0.62127    1.000
    N4221    N        0.69848    0.22045    0.72023    1.000
    Si4222   Si       0.71469    0.10484    0.82408    1.000
    N4223    N        0.73417    0.07057    0.80113    1.000
    Si4224   Si       0.71644    0.04406    0.85961    1.000
    Si4225   Si       0.71565    0.02887    0.79376    1.000
    N4226    N        0.70545    0.08538    0.86298    1.000
    N4227    N        0.69494    0.02435    0.75475    1.000
    N4228    N        0.71214    0.14833    0.89733    1.000
    N4229    N        0.73910    0.13942    0.83249    1.000
    N4230    N        0.72601    0.16237    0.76776    1.000
    Si4231   Si       0.73653    0.17380    0.80707    1.000
    Si4232   Si       0.70041    0.23030    0.85140    1.000
    N4233    N        0.70296    0.19850    0.81985    1.000
    N4234    N        0.74174    0.24254    0.86267    1.000
    N4235    N        0.71221    0.03173    0.96633    1.000
    N4236    N        0.72850    0.08683    0.92458    1.000
    Si4237   Si       0.73514    0.04283    0.92999    1.000
    N4238    N        0.71067    0.02377    0.89948    1.000
    Si4239   Si       0.69735    0.10631    0.90079    1.000
    Si4240   Si       0.72750    0.21711    0.98730    1.000
    Si4241   Si       0.74960    0.14718    0.87505    1.000
    N4242    N        0.72552    0.20381    0.94391    1.000
    N4243    N        0.75103    0.25266    0.99388    1.000
    N4244    N        0.71338    0.33209    0.01043    1.000
    N4245    N        0.71929    0.28896    0.05955    1.000
    Si4246   Si       0.72911    0.26019    0.09211    1.000
    Si4247   Si       0.75140    0.27144    0.03369    1.000
    Si4248   Si       0.69835    0.42729    0.09747    1.000
    Si4249   Si       0.74031    0.42319    0.03403    1.000
    N4250    N        0.72814    0.49352    0.02177    1.000
    N4251    N        0.70230    0.41568    0.05566    1.000
    N4252    N        0.73717    0.43650    0.11680    1.000
    Si4253   Si       0.70081    0.49501    0.11550    1.000
    Si4254   Si       0.74224    0.44355    0.15957    1.000
    N4255    N        0.74928    0.28155    0.12510    1.000
    Si4256   Si       0.72599    0.29474    0.21983    1.000
    Si4257   Si       0.71767    0.37180    0.17253    1.000
    N4258    N        0.72600    0.34898    0.13640    1.000
    N4259    N        0.74910    0.35747    0.19914    1.000
    Si4260   Si       0.73647    0.36258    0.24071    1.000
    Si4261   Si       0.73857    0.50635    0.18130    1.000
    N4262    N        0.71870    0.41419    0.17944    1.000
    N4263    N        0.70311    0.45304    0.23475    1.000
    N4264    N        0.71344    0.48506    0.15516    1.000
    N4265    N        0.72405    0.25866    0.24414    1.000
    Si4266   Si       0.70988    0.29637    0.34773    1.000
    N4267    N        0.74596    0.32348    0.34842    1.000
    N4268    N        0.71116    0.32716    0.24456    1.000
    N4269    N        0.72175    0.26093    0.37060    1.000
    N4270    N        0.75536    0.49120    0.41478    1.000
    Si4271   Si       0.72480    0.44024    0.27159    1.000
    N4272    N        0.74534    0.47580    0.28471    1.000
    N4273    N        0.70452    0.42259    0.30367    1.000
    N4274    N        0.71879    0.45414    0.36669    1.000
    N4275    N        0.70341    0.39052    0.24684    1.000
    Si4276   Si       0.73229    0.34857    0.45299    1.000
    N4277    N        0.72893    0.26292    0.43550    1.000
    Si4278   Si       0.73830    0.27962    0.47315    1.000
    N4279    N        0.72056    0.31663    0.48052    1.000
    N4280    N        0.72070    0.44120    0.47646    1.000
    N4281    N        0.75551    0.37759    0.47172    1.000
    Si4282   Si       0.75337    0.41863    0.46008    1.000
    Si4283   Si       0.75348    0.45554    0.39197    1.000
    Si4284   Si       0.71099    0.31709    0.52457    1.000
    N4285    N        0.73535    0.36374    0.59378    1.000
    N4286    N        0.74399    0.30635    0.55066    1.000
    Si4287   Si       0.74252    0.26390    0.55218    1.000
    Si4288   Si       0.70987    0.44258    0.51991    1.000
    N4289    N        0.70871    0.50011    0.61060    1.000
    N4290    N        0.70294    0.47766    0.54266    1.000
    N4291    N        0.73821    0.41719    0.54062    1.000
    Si4292   Si       0.74705    0.39836    0.61944    1.000
    N4293    N        0.70609    0.33268    0.67954    1.000
    N4294    N        0.73362    0.28566    0.63732    1.000
    Si4295   Si       0.73684    0.31559    0.70327    1.000
    Si4296   Si       0.70846    0.37551    0.68184    1.000
    N4297    N        0.74083    0.27029    0.70603    1.000
    N4298    N        0.74009    0.33132    0.74327    1.000
    Si4299   Si       0.75055    0.37393    0.74291    1.000
    Si4300   Si       0.69560    0.30788    0.64243    1.000
    N4301    N        0.74433    0.38912    0.66128    1.000
    N4302    N        0.72383    0.43400    0.62110    1.000
    Si4303   Si       0.72208    0.49678    0.70923    1.000
    N4304    N        0.72598    0.48204    0.67022    1.000
    N4305    N        0.71388    0.38756    0.72253    1.000
    Si4306   Si       0.73831    0.47468    0.63055    1.000
    Si4307   Si       0.71240    0.31076    0.77321    1.000
    N4308    N        0.73183    0.31697    0.81301    1.000
    N4309    N        0.72222    0.26826    0.76678    1.000
    Si4310   Si       0.70168    0.30556    0.84252    1.000
    N4311    N        0.74902    0.37758    0.78702    1.000
    N4312    N        0.70812    0.40860    0.83605    1.000
    N4313    N        0.72089    0.48968    0.83059    1.000
    Si4314   Si       0.74822    0.40182    0.82457    1.000
    N4315    N        0.72323    0.30382    0.87948    1.000
    Si4316   Si       0.72394    0.33458    0.90929    1.000
    Si4317   Si       0.72487    0.33392    0.97078    1.000
    N4318    N        0.72882    0.37665    0.96202    1.000
    N4319    N        0.70561    0.37013    0.89534    1.000
    N4320    N        0.69682    0.31737    0.94157    1.000
    N4321    N        0.70559    0.50292    0.89633    1.000
    N4322    N        0.70423    0.43522    0.92263    1.000
    Si4323   Si       0.72862    0.46931    0.91131    1.000
    Si4324   Si       0.70410    0.39295    0.93267    1.000
    N4325    N        0.74347    0.48362    0.94883    1.000
    N4326    N        0.75602    0.43395    0.99261    1.000
    Si4327   Si       0.71818    0.55173    0.07930    1.000
    N4328    N        0.71633    0.58661    0.10508    1.000
    N4329    N        0.71917    0.60086    0.00696    1.000
    Si4330   Si       0.73992    0.62147    0.11855    1.000
    N4331    N        0.74875    0.70784    0.05275    1.000
    Si4332   Si       0.73606    0.66588    0.05286    1.000
    N4333    N        0.72023    0.72010    0.11217    1.000
    Si4334   Si       0.70119    0.68059    0.10779    1.000
    N4335    N        0.69594    0.66490    0.06777    1.000
    Si4336   Si       0.74779    0.73598    0.08447    1.000
    N4337    N        0.74870    0.66125    0.01012    1.000
    Si4338   Si       0.71661    0.61911    0.24147    1.000
    N4339    N        0.71394    0.51914    0.21572    1.000
    Si4340   Si       0.72780    0.55404    0.23869    1.000
    N4341    N        0.70497    0.59627    0.16924    1.000
    Si4342   Si       0.74663    0.58429    0.17834    1.000
    N4343    N        0.74672    0.58837    0.22152    1.000
    N4344    N        0.71657    0.71414    0.22375    1.000
    Si4345   Si       0.70196    0.64013    0.17598    1.000
    Si4346   Si       0.74227    0.68295    0.23452    1.000
    Si4347   Si       0.70287    0.74836    0.20416    1.000
    N4348    N        0.72855    0.64891    0.20997    1.000
    N4349    N        0.71503    0.65152    0.13623    1.000
    N4350    N        0.75502    0.54357    0.16795    1.000
    N4351    N        0.72778    0.50828    0.08430    1.000
    N4352    N        0.73759    0.58595    0.33377    1.000
    N4353    N        0.71792    0.51869    0.33779    1.000
    N4354    N        0.74728    0.54592    0.27542    1.000
    N4355    N        0.74518    0.62814    0.27644    1.000
    Si4356   Si       0.72240    0.51217    0.29416    1.000
    Si4357   Si       0.75105    0.54678    0.34834    1.000
    Si4358   Si       0.72160    0.62622    0.34544    1.000
    N4359    N        0.72793    0.68848    0.27603    1.000
    Si4360   Si       0.72367    0.74719    0.33673    1.000
    N4361    N        0.74700    0.66328    0.34129    1.000
    Si4362   Si       0.69967    0.72610    0.26400    1.000
    N4363    N        0.71168    0.75272    0.29585    1.000
    N4364    N        0.70575    0.53893    0.44559    1.000
    N4365    N        0.72815    0.60293    0.45623    1.000
    Si4366   Si       0.73599    0.56181    0.46584    1.000
    N4367    N        0.70571    0.61905    0.38420    1.000
    N4368    N        0.74488    0.70562    0.40342    1.000
    Si4369   Si       0.70049    0.71607    0.39949    1.000
    N4370    N        0.75561    0.66629    0.46402    1.000
    N4371    N        0.69416    0.72217    0.35597    1.000
    N4372    N        0.73483    0.55228    0.50925    1.000
    N4373    N        0.74330    0.61782    0.60063    1.000
    Si4374   Si       0.71102    0.51111    0.56939    1.000
    Si4375   Si       0.69816    0.57013    0.52733    1.000
    Si4376   Si       0.72354    0.63228    0.56512    1.000
    N4377    N        0.69671    0.63720    0.64495    1.000
    N4378    N        0.74860    0.63816    0.52907    1.000
    Si4379   Si       0.72641    0.70780    0.56308    1.000
    N4380    N        0.73632    0.70207    0.52071    1.000
    N4381    N        0.71508    0.67055    0.58304    1.000
    Si4382   Si       0.72978    0.66562    0.50010    1.000
    N4383    N        0.74515    0.59872    0.73380    1.000
    Si4384   Si       0.72043    0.60175    0.63278    1.000
    N4385    N        0.72025    0.53841    0.72161    1.000
    Si4386   Si       0.72635    0.57691    0.70199    1.000
    N4387    N        0.74780    0.58813    0.66492    1.000
    Si4388   Si       0.71909    0.66885    0.62620    1.000
    N4389    N        0.72118    0.69161    0.70296    1.000
    Si4390   Si       0.72097    0.68782    0.74834    1.000
    Si4391   Si       0.72230    0.59827    0.84341    1.000
    N4392    N        0.72758    0.55631    0.85161    1.000
    Si4393   Si       0.71961    0.61445    0.76639    1.000
    N4394    N        0.74131    0.60852    0.80396    1.000
    Si4395   Si       0.70531    0.54131    0.76279    1.000
    N4396    N        0.74336    0.53648    0.78213    1.000
    Si4397   Si       0.74642    0.52878    0.82537    1.000
    N4398    N        0.70961    0.70715    0.82569    1.000
    N4399    N        0.69912    0.65034    0.75477    1.000
    N4400    N        0.69575    0.72304    0.75865    1.000
    N4401    N        0.73170    0.73591    0.99230    1.000
    Si4402   Si       0.74964    0.69869    0.81493    1.000
    N4403    N        0.73306    0.61809    0.87976    1.000
    N4404    N        0.70754    0.56911    0.92533    1.000
    Si4405   Si       0.72887    0.60912    0.92244    1.000
    Si4406   Si       0.72181    0.54217    0.89339    1.000
    Si4407   Si       0.72860    0.50801    0.97946    1.000
    N4408    N        0.75093    0.54503    0.97950    1.000
    Si4409   Si       0.69924    0.67775    0.92872    1.000
    N4410    N        0.72073    0.64519    0.94616    1.000
    N4411    N        0.71289    0.67947    0.88711    1.000
    Si4412   Si       0.74852    0.65818    0.88084    1.000
    Si4413   Si       0.73451    0.73665    0.94798    1.000
    Si4414   Si       0.71651    0.63981    0.98823    1.000
    N4415    N        0.73567    0.77609    0.07489    1.000
    Si4416   Si       0.71833    0.77330    0.00747    1.000
    N4417    N        0.73094    0.87088    0.03088    1.000
    N4418    N        0.75122    0.79921    0.01797    1.000
    N4419    N        0.74832    0.94491    0.23955    1.000
    N4420    N        0.71198    0.95185    0.07316    1.000
    Si4421   Si       0.73630    0.98005    0.09816    1.000
    Si4422   Si       0.71532    0.96724    0.03161    1.000
    N4423    N        0.69987    0.94033    0.00329    1.000
    N4424    N        0.69733    0.00498    0.02150    1.000
    N4425    N        0.70110    0.99707    0.11985    1.000
    N4426    N        0.72718    0.85629    0.12708    1.000
    Si4427   Si       0.70943    0.81560    0.21030    1.000
    N4428    N        0.74048    0.84287    0.19331    1.000
    N4429    N        0.72579    0.78302    0.18836    1.000
    Si4430   Si       0.72470    0.87305    0.16695    1.000
    N4431    N        0.71145    0.00678    0.22044    1.000
    N4432    N        0.75014    0.90421    0.18644    1.000
    Si4433   Si       0.73707    0.94293    0.19837    1.000
    N4434    N        0.73307    0.84366    0.31113    1.000
    N4435    N        0.72083    0.78481    0.35943    1.000
    Si4436   Si       0.74425    0.81850    0.34322    1.000
    N4437    N        0.72411    0.81498    0.25305    1.000
    Si4438   Si       0.69882    0.78854    0.27460    1.000
    Si4439   Si       0.71444    0.98791    0.49045    1.000
    Si4440   Si       0.72391    0.97919    0.25140    1.000
    N4441    N        0.73885    0.92323    0.30457    1.000
    N4442    N        0.74310    0.98014    0.34498    1.000
    N4443    N        0.72003    0.90759    0.36443    1.000
    Si4444   Si       0.69611    0.92715    0.30158    1.000
    Si4445   Si       0.69029    0.85440    0.44844    1.000
    Si4446   Si       0.74905    0.93668    0.34554    1.000
    Si4447   Si       0.71935    0.79039    0.40320    1.000
    N4448    N        0.71982    0.84976    0.47835    1.000
    Si4449   Si       0.71215    0.86736    0.37961    1.000
    N4450    N        0.74971    0.84270    0.37943    1.000
    N4451    N        0.69500    0.81908    0.42464    1.000
    N4452    N        0.72900    0.95721    0.40915    1.000
    N4453    N        0.70017    0.88410    0.41901    1.000
    Si4454   Si       0.72628    0.99138    0.38419    1.000
    Si4455   Si       0.70026    0.92425    0.39896    1.000
    Si4456   Si       0.75127    0.82951    0.45747    1.000
    N4457    N        0.72513    0.82537    0.54323    1.000
    Si4458   Si       0.72358    0.86155    0.52044    1.000
    Si4459   Si       0.73502    0.79034    0.51840    1.000
    Si4460   Si       0.70761    0.82988    0.58386    1.000
    N4461    N        0.69676    0.77101    0.50987    1.000
    N4462    N        0.69961    0.87259    0.59208    1.000
    N4463    N        0.72151    0.94767    0.50948    1.000
    N4464    N        0.72554    0.82266    0.62459    1.000
    N4465    N        0.72957    0.76881    0.72151    1.000
    N4466    N        0.73336    0.83407    0.69303    1.000
    Si4467   Si       0.74120    0.81008    0.72748    1.000
    Si4468   Si       0.70413    0.82495    0.66085    1.000
    Si4469   Si       0.75337    0.93499    0.62523    1.000
    Si4470   Si       0.71768    0.88611    0.63114    1.000
    N4471    N        0.74139    0.98706    0.71104    1.000
    N4472    N        0.71045    0.93011    0.62731    1.000
    N4473    N        0.72073    0.00640    0.64018    1.000
    N4474    N        0.71374    0.77444    0.81059    1.000
    N4475    N        0.72549    0.82633    0.76484    1.000
    Si4476   Si       0.74365    0.85728    0.79014    1.000
    N4477    N        0.74816    0.85895    0.83308    1.000
    N4478    N        0.74075    0.90337    0.88587    1.000
    N4479    N        0.71818    0.88921    0.77595    1.000
    Si4480   Si       0.72636    0.89404    0.84634    1.000
    Si4481   Si       0.73242    0.92947    0.77772    1.000
    N4482    N        0.74482    0.92659    0.82073    1.000
    N4483    N        0.74466    0.99850    0.78034    1.000
    N4484    N        0.69853    0.95505    0.76767    1.000
    Si4485   Si       0.71731    0.98800    0.74649    1.000
    N4486    N        0.70239    0.79103    0.97149    1.000
    Si4487   Si       0.72829    0.80835    0.94189    1.000
    N4488    N        0.70585    0.83806    0.92204    1.000
    N4489    N        0.74326    0.77135    0.92165    1.000
    N4490    N        0.73677    0.94479    0.94389    1.000
    Si4491   Si       0.73362    0.94215    0.90077    1.000
    Si4492   Si       0.69747    0.93774    0.96073    1.000
    Si4493   Si       0.79299    0.03579    0.10245    1.000
    N4494    N        0.79869    0.07851    0.10693    1.000
    Si4495   Si       0.76964    0.01559    0.04863    1.000
    Si4496   Si       0.77612    0.07946    0.00506    1.000
    N4497    N        0.75964    0.04227    0.01674    1.000
    N4498    N        0.80922    0.02592    0.06296    1.000
    N4499    N        0.78430    0.23392    0.21450    1.000
    N4500    N        0.77283    0.21891    0.14165    1.000
    N4501    N        0.77203    0.17134    0.07597    1.000
    Si4502   Si       0.77027    0.20326    0.04598    1.000
    N4503    N        0.80575    0.21945    0.02741    1.000
    Si4504   Si       0.81055    0.16367    0.09390    1.000
    N4505    N        0.79271    0.16502    0.21488    1.000
    N4506    N        0.77434    0.03715    0.21270    1.000
    Si4507   Si       0.79326    0.07379    0.19803    1.000
    N4508    N        0.76885    0.10327    0.17639    1.000
    N4509    N        0.80310    0.01453    0.13854    1.000
    Si4510   Si       0.78497    0.10647    0.13546    1.000
    N4511    N        0.81009    0.09595    0.22998    1.000
    N4512    N        0.81008    0.15689    0.00721    1.000
    N4513    N        0.81581    0.13706    0.12929    1.000
    N4514    N        0.76747    0.09128    0.28157    1.000
    Si4515   Si       0.80846    0.08403    0.27181    1.000
    Si4516   Si       0.77946    0.04145    0.36488    1.000
    Si4517   Si       0.78362    0.01926    0.25339    1.000
    N4518    N        0.80943    0.01822    0.34618    1.000
    N4519    N        0.80025    0.15916    0.28613    1.000
    N4520    N        0.77524    0.22238    0.28322    1.000
    N4521    N        0.79184    0.18969    0.34366    1.000
    Si4522   Si       0.77269    0.18404    0.30446    1.000
    Si4523   Si       0.75477    0.22857    0.24746    1.000
    N4524    N        0.79673    0.08110    0.37300    1.000
    Si4525   Si       0.77750    0.02625    0.48183    1.000
    Si4526   Si       0.76812    0.11052    0.38092    1.000
    N4527    N        0.75415    0.06230    0.48216    1.000
    N4528    N        0.80904    0.03075    0.45306    1.000
    Si4529   Si       0.77085    0.10100    0.49175    1.000
    Si4530   Si       0.79830    0.13998    0.43655    1.000
    N4531    N        0.77383    0.21939    0.40682    1.000
    N4532    N        0.77961    0.20762    0.47640    1.000
    N4533    N        0.76440    0.13326    0.46552    1.000
    Si4534   Si       0.80235    0.21222    0.43930    1.000
    Si4535   Si       0.76796    0.18588    0.38077    1.000
    N4536    N        0.76967    0.14940    0.40251    1.000
    Si4537   Si       0.79006    0.03002    0.56281    1.000
    N4538    N        0.76489    0.11321    0.60011    1.000
    N4539    N        0.79299    0.01517    0.52061    1.000
    Si4540   Si       0.80484    0.10578    0.58600    1.000
    N4541    N        0.75370    0.11103    0.53021    1.000
    Si4542   Si       0.79105    0.21301    0.57956    1.000
    N4543    N        0.77992    0.23992    0.54578    1.000
    Si4544   Si       0.77589    0.23932    0.50378    1.000
    N4545    N        0.76502    0.17697    0.57870    1.000
    Si4546   Si       0.75938    0.15243    0.61456    1.000
    N4547    N        0.77652    0.23017    0.61809    1.000
    Si4548   Si       0.76206    0.01218    0.62084    1.000
    N4549    N        0.76944    0.08603    0.73481    1.000
    N4550    N        0.77265    0.03643    0.65779    1.000
    Si4551   Si       0.77756    0.11933    0.70808    1.000
    N4552    N        0.80266    0.10420    0.67743    1.000
    Si4553   Si       0.80562    0.06220    0.66956    1.000
    N4554    N        0.80941    0.00817    0.59542    1.000
    N4555    N        0.76978    0.21340    0.68697    1.000
    N4556    N        0.79014    0.16384    0.64107    1.000
    Si4557   Si       0.79217    0.20651    0.65257    1.000
    Si4558   Si       0.79170    0.19937    0.72412    1.000
    N4559    N        0.78641    0.15701    0.72442    1.000
    N4560    N        0.79527    0.03927    0.78547    1.000
    Si4561   Si       0.77360    0.06178    0.81576    1.000
    N4562    N        0.75904    0.04081    0.85234    1.000
    N4563    N        0.80870    0.07773    0.83931    1.000
    N4564    N        0.77907    0.22564    0.75441    1.000
    N4565    N        0.76983    0.19871    0.81656    1.000
    Si4566   Si       0.77301    0.21315    0.85777    1.000
    Si4567   Si       0.79489    0.22427    0.79306    1.000
    N4568    N        0.80725    0.23697    0.86597    1.000
    Si4569   Si       0.79792    0.04735    0.87447    1.000
    Si4570   Si       0.76450    0.10951    0.93244    1.000
    N4571    N        0.78657    0.08244    0.96255    1.000
    N4572    N        0.77562    0.03501    0.91902    1.000
    N4573    N        0.77752    0.11630    0.89083    1.000
    Si4574   Si       0.80923    0.05625    0.93801    1.000
    Si4575   Si       0.76769    0.15187    0.99392    1.000
    Si4576   Si       0.81185    0.24010    0.90932    1.000
    N4577    N        0.80586    0.20491    0.93546    1.000
    N4578    N        0.76499    0.14913    0.95225    1.000
    N4579    N        0.76536    0.18364    0.88706    1.000
    Si4580   Si       0.76558    0.18686    0.93018    1.000
    Si4581   Si       0.80336    0.05922    0.74701    1.000
    N4582    N        0.79161    0.28758    0.03664    1.000
    N4583    N        0.77077    0.33280    0.08225    1.000
    Si4584   Si       0.78165    0.36955    0.06383    1.000
    Si4585   Si       0.80663    0.31580    0.06475    1.000
    N4586    N        0.75666    0.38300    0.03025    1.000
    N4587    N        0.79023    0.39552    0.09638    1.000
    Si4588   Si       0.77673    0.43589    0.09895    1.000
    N4589    N        0.76347    0.44930    0.05919    1.000
    N4590    N        0.80615    0.46388    0.11215    1.000
    Si4591   Si       0.75336    0.49010    0.05538    1.000
    N4592    N        0.79404    0.50549    0.06117    1.000
    Si4593   Si       0.75714    0.32372    0.12081    1.000
    N4594    N        0.79268    0.33712    0.14690    1.000
    Si4595   Si       0.78093    0.33267    0.18830    1.000
    N4596    N        0.76425    0.29118    0.19409    1.000
    N4597    N        0.80790    0.26811    0.15214    1.000
    Si4598   Si       0.80293    0.27422    0.21310    1.000
    Si4599   Si       0.80142    0.38356    0.13829    1.000
    Si4600   Si       0.76000    0.25930    0.16163    1.000
    Si4601   Si       0.80464    0.46505    0.15594    1.000
    N4602    N        0.78811    0.42031    0.15633    1.000
    N4603    N        0.80775    0.46819    0.24286    1.000
    N4604    N        0.76922    0.47538    0.17795    1.000
    Si4605   Si       0.77974    0.34893    0.33273    1.000
    N4606    N        0.77475    0.35255    0.25983    1.000
    N4607    N        0.80199    0.28027    0.25789    1.000
    Si4608   Si       0.80903    0.32368    0.26319    1.000
    N4609    N        0.80614    0.32924    0.30699    1.000
    N4610    N        0.80373    0.45459    0.31475    1.000
    N4611    N        0.78079    0.39069    0.32565    1.000
    Si4612   Si       0.78861    0.38904    0.28185    1.000
    Si4613   Si       0.78259    0.45605    0.27576    1.000
    N4614    N        0.76196    0.41979    0.26456    1.000
    Si4615   Si       0.80261    0.42477    0.34305    1.000
    N4616    N        0.79409    0.45081    0.37816    1.000
    Si4617   Si       0.81504    0.49497    0.32601    1.000
    N4618    N        0.80800    0.34383    0.36992    1.000
    N4619    N        0.78379    0.28225    0.39284    1.000
    N4620    N        0.78200    0.27506    0.47940    1.000
    Si4621   Si       0.77051    0.32356    0.38540    1.000
    Si4622   Si       0.79145    0.36081    0.45209    1.000
    N4623    N        0.76224    0.33801    0.42484    1.000
    N4624    N        0.80905    0.34124    0.48640    1.000
    Si4625   Si       0.80425    0.42687    0.42211    1.000
    N4626    N        0.75558    0.41766    0.41572    1.000
    N4627    N        0.79360    0.43503    0.46314    1.000
    N4628    N        0.78721    0.31418    0.60412    1.000
    N4629    N        0.78888    0.36139    0.55114    1.000
    Si4630   Si       0.76444    0.33483    0.57502    1.000
    N4631    N        0.78270    0.41184    0.59670    1.000
    Si4632   Si       0.77711    0.40324    0.55380    1.000
    N4633    N        0.77231    0.48710    0.50433    1.000
    Si4634   Si       0.79963    0.45409    0.50115    1.000
    N4635    N        0.80863    0.42393    0.53153    1.000
    Si4636   Si       0.79031    0.50439    0.58874    1.000
    N4637    N        0.79801    0.29033    0.73764    1.000
    Si4638   Si       0.77510    0.30070    0.64392    1.000
    N4639    N        0.77316    0.32306    0.67989    1.000
    Si4640   Si       0.76137    0.26527    0.74487    1.000
    N4641    N        0.81001    0.38146    0.65133    1.000
    N4642    N        0.81026    0.28030    0.66090    1.000
    Si4643   Si       0.80997    0.30516    0.69784    1.000
    N4644    N        0.78507    0.38425    0.72001    1.000
    N4645    N        0.78163    0.48214    0.62627    1.000
    Si4646   Si       0.79057    0.46157    0.71425    1.000
    Si4647   Si       0.78128    0.39809    0.67852    1.000
    N4648    N        0.75829    0.48516    0.73066    1.000
    N4649    N        0.78692    0.44035    0.67647    1.000
    Si4650   Si       0.76451    0.34428    0.80839    1.000
    N4651    N        0.76622    0.36836    0.84711    1.000
    N4652    N        0.78677    0.30074    0.86271    1.000
    N4653    N        0.80414    0.33471    0.79544    1.000
    N4654    N        0.80191    0.26634    0.80407    1.000
    N4655    N        0.77131    0.43639    0.81893    1.000
    N4656    N        0.80529    0.50345    0.77384    1.000
    Si4657   Si       0.75703    0.46958    0.84161    1.000
    Si4658   Si       0.76202    0.39158    0.98729    1.000
    Si4659   Si       0.75647    0.27609    0.88367    1.000
    Si4660   Si       0.78492    0.34165    0.87467    1.000
    N4661    N        0.77367    0.26323    0.92186    1.000
    N4662    N        0.76651    0.34669    0.91254    1.000
    Si4663   Si       0.79146    0.34235    0.94872    1.000
    N4664    N        0.76337    0.31578    0.96631    1.000
    Si4665   Si       0.77437    0.27375    0.96392    1.000
    N4666    N        0.79827    0.37810    0.96993    1.000
    Si4667   Si       0.77726    0.46062    0.96869    1.000
    N4668    N        0.79848    0.43596    0.93825    1.000
    Si4669   Si       0.79958    0.45099    0.89745    1.000
    N4670    N        0.75981    0.45780    0.88430    1.000
    N4671    N        0.80946    0.48290    0.98553    1.000
    N4672    N        0.78215    0.50640    0.84097    1.000
    N4673    N        0.81212    0.44108    0.74622    1.000
    Si4674   Si       0.79059    0.54615    0.07196    1.000
    N4675    N        0.79285    0.59313    0.00911    1.000
    N4676    N        0.79490    0.55247    0.11463    1.000
    N4677    N        0.75410    0.55937    0.05404    1.000
    Si4678   Si       0.75313    0.57289    0.01306    1.000
    Si4679   Si       0.78473    0.63781    0.00863    1.000
    N4680    N        0.78525    0.74346    0.10623    1.000
    Si4681   Si       0.79832    0.65154    0.08438    1.000
    Si4682   Si       0.75851    0.70847    0.01104    1.000
    N4683    N        0.75464    0.64317    0.08387    1.000
    N4684    N        0.79859    0.71726    0.99852    1.000
    N4685    N        0.76692    0.61168    0.15108    1.000
    Si4686   Si       0.79725    0.54288    0.15479    1.000
    Si4687   Si       0.80398    0.63331    0.15088    1.000
    N4688    N        0.80891    0.73358    0.16649    1.000
    Si4689   Si       0.80769    0.69925    0.19475    1.000
    Si4690   Si       0.79497    0.71094    0.13249    1.000
    N4691    N        0.78249    0.69512    0.23035    1.000
    N4692    N        0.79322    0.67375    0.16105    1.000
    N4693    N        0.81004    0.64921    0.04256    1.000
    N4694    N        0.81118    0.57065    0.18529    1.000
    Si4695   Si       0.79060    0.53963    0.28986    1.000
    N4696    N        0.79755    0.58100    0.29746    1.000
    N4697    N        0.78281    0.52384    0.32963    1.000
    Si4698   Si       0.75347    0.58960    0.29334    1.000
    N4699    N        0.81170    0.69448    0.43503    1.000
    N4700    N        0.76348    0.73040    0.33976    1.000
    N4701    N        0.79753    0.67859    0.29258    1.000
    Si4702   Si       0.76353    0.69522    0.36484    1.000
    N4703    N        0.79409    0.75224    0.28024    1.000
    Si4704   Si       0.80724    0.71359    0.26181    1.000
    Si4705   Si       0.75574    0.66660    0.29900    1.000
    N4706    N        0.80385    0.68509    0.36996    1.000
    Si4707   Si       0.76512    0.62550    0.45219    1.000
    N4708    N        0.77570    0.54791    0.45532    1.000
    N4709    N        0.79173    0.60546    0.48196    1.000
    N4710    N        0.76939    0.55586    0.38808    1.000
    Si4711   Si       0.77706    0.52614    0.41802    1.000
    Si4712   Si       0.79466    0.58986    0.39098    1.000
    Si4713   Si       0.80733    0.56314    0.48089    1.000
    N4714    N        0.78000    0.62688    0.41141    1.000
    Si4715   Si       0.76950    0.69847    0.43869    1.000
    N4716    N        0.76635    0.73553    0.46577    1.000
    Si4717   Si       0.79198    0.75788    0.32294    1.000
    N4718    N        0.79286    0.59968    0.55813    1.000
    Si4719   Si       0.78867    0.62332    0.52242    1.000
    Si4720   Si       0.78599    0.62131    0.59607    1.000
    N4721    N        0.80304    0.54455    0.51945    1.000
    Si4722   Si       0.76518    0.52514    0.52321    1.000
    N4723    N        0.81274    0.54267    0.58989    1.000
    N4724    N        0.79583    0.66263    0.58409    1.000
    Si4725   Si       0.78354    0.69459    0.61143    1.000
    Si4726   Si       0.77083    0.72627    0.50848    1.000
    N4727    N        0.80587    0.70594    0.52104    1.000
    N4728    N        0.76193    0.71989    0.58168    1.000
    Si4729   Si       0.78350    0.75493    0.57307    1.000
    N4730    N        0.81194    0.61308    0.62872    1.000
    Si4731   Si       0.78638    0.59115    0.73324    1.000
    N4732    N        0.79473    0.54936    0.72498    1.000
    N4733    N        0.80180    0.61403    0.69848    1.000
    Si4734   Si       0.79002    0.59380    0.66129    1.000
    N4735    N        0.75471    0.51783    0.56534    1.000
    N4736    N        0.78638    0.67674    0.71675    1.000
    Si4737   Si       0.76070    0.69505    0.68590    1.000
    N4738    N        0.78026    0.73315    0.68132    1.000
    N4739    N        0.75668    0.67999    0.64372    1.000
    Si4740   Si       0.78476    0.60234    0.80577    1.000
    N4741    N        0.79717    0.56242    0.81935    1.000
    N4742    N        0.80473    0.60834    0.76862    1.000
    Si4743   Si       0.77081    0.52087    0.75195    1.000
    N4744    N        0.80690    0.61751    0.83945    1.000
    Si4745   Si       0.81170    0.52131    0.81044    1.000
    N4746    N        0.80435    0.64834    0.97154    1.000
    Si4747   Si       0.80623    0.65760    0.85607    1.000
    N4748    N        0.77383    0.73526    0.81903    1.000
    N4749    N        0.76575    0.67019    0.84334    1.000
    Si4750   Si       0.79446    0.70063    0.75228    1.000
    N4751    N        0.79183    0.74412    0.75000    1.000
    N4752    N        0.75614    0.68867    0.77403    1.000
    Si4753   Si       0.80870    0.72754    0.84555    1.000
    Si4754   Si       0.79650    0.52447    0.88063    1.000
    Si4755   Si       0.77239    0.55578    0.94394    1.000
    N4756    N        0.76765    0.60005    0.93657    1.000
    N4757    N        0.76388    0.53703    0.90484    1.000
    Si4758   Si       0.79874    0.62805    0.93188    1.000
    N4759    N        0.79520    0.73224    0.88602    1.000
    N4760    N        0.76529    0.70784    0.93927    1.000
    N4761    N        0.79078    0.65756    0.89984    1.000
    Si4762   Si       0.79794    0.69934    0.91406    1.000
    N4763    N        0.77593    0.83720    0.07544    1.000
    Si4764   Si       0.77135    0.86886    0.04572    1.000
    Si4765   Si       0.77066    0.79686    0.05857    1.000
    N4766    N        0.79298    0.85876    0.00815    1.000
    N4767    N        0.80246    0.76654    0.04923    1.000
    Si4768   Si       0.76835    0.84964    0.11678    1.000
    N4769    N        0.77654    0.90838    0.06714    1.000
    Si4770   Si       0.79070    0.92296    0.10484    1.000
    Si4771   Si       0.78224    0.94111    0.04103    1.000
    N4772    N        0.77171    0.95974    0.11259    1.000
    N4773    N        0.75864    0.97699    0.03570    1.000
    N4774    N        0.79003    0.93054    0.99719    1.000
    N4775    N        0.79148    0.78943    0.20637    1.000
    N4776    N        0.78200    0.81631    0.14114    1.000
    Si4777   Si       0.77124    0.87191    0.20883    1.000
    Si4778   Si       0.76328    0.80653    0.17927    1.000
    N4779    N        0.80496    0.98582    0.23884    1.000
    Si4780   Si       0.78674    0.97568    0.14996    1.000
    N4781    N        0.78906    0.88762    0.13134    1.000
    N4782    N        0.81159    0.86003    0.19762    1.000
    N4783    N        0.75193    0.97820    0.17725    1.000
    N4784    N        0.78242    0.79873    0.33288    1.000
    N4785    N        0.79506    0.82015    0.26739    1.000
    N4786    N        0.76397    0.87641    0.25189    1.000
    Si4787   Si       0.80725    0.78301    0.24762    1.000
    Si4788   Si       0.75513    0.83909    0.27317    1.000
    N4789    N        0.80334    0.92670    0.27946    1.000
    N4790    N        0.79069    0.92614    0.35313    1.000
    Si4791   Si       0.76188    0.91588    0.26888    1.000
    N4792    N        0.75570    0.79814    0.42338    1.000
    N4793    N        0.76690    0.80115    0.48633    1.000
    Si4794   Si       0.77931    0.77471    0.45161    1.000
    Si4795   Si       0.78269    0.82947    0.40509    1.000
    N4796    N        0.78236    0.85424    0.44123    1.000
    Si4797   Si       0.76348    0.96086    0.43696    1.000
    N4798    N        0.77047    0.92263    0.45971    1.000
    N4799    N        0.75238    0.99136    0.46775    1.000
    N4800    N        0.80016    0.96714    0.41664    1.000
    Si4801   Si       0.79850    0.89245    0.44725    1.000
    N4802    N        0.78404    0.78895    0.59711    1.000
    Si4803   Si       0.79904    0.78808    0.51332    1.000
    N4804    N        0.77371    0.85662    0.58700    1.000
    Si4805   Si       0.76882    0.82358    0.61460    1.000
    N4806    N        0.76760    0.76344    0.53346    1.000
    Si4807   Si       0.78133    0.89136    0.56437    1.000
    Si4808   Si       0.80321    0.96268    0.59547    1.000
    N4809    N        0.77384    0.92964    0.58475    1.000
    N4810    N        0.79928    0.94281    0.51946    1.000
    Si4811   Si       0.76053    0.92695    0.50408    1.000
    N4812    N        0.75776    0.88926    0.52706    1.000
    Si4813   Si       0.78932    0.89551    0.74274    1.000
    N4814    N        0.78277    0.80347    0.71613    1.000
    Si4815   Si       0.77821    0.83652    0.68914    1.000
    N4816    N        0.79249    0.82943    0.64971    1.000
    N4817    N        0.79187    0.87392    0.70479    1.000
    N4818    N        0.75998    0.89725    0.64438    1.000
    Si4819   Si       0.77683    0.96141    0.71694    1.000
    N4820    N        0.79803    0.93703    0.68891    1.000
    N4821    N        0.77421    0.97188    0.62750    1.000
    Si4822   Si       0.79476    0.89956    0.66908    1.000
    Si4823   Si       0.77290    0.76123    0.71595    1.000
    N4824    N        0.78255    0.86734    0.77365    1.000
    N4825    N        0.78440    0.79828    0.79437    1.000
    Si4826   Si       0.77788    0.83496    0.85541    1.000
    N4827    N        0.76591    0.79246    0.85869    1.000
    Si4828   Si       0.81047    0.76463    0.78477    1.000
    Si4829   Si       0.80738    0.83652    0.79075    1.000
    Si4830   Si       0.77583    0.94722    0.84391    1.000
    Si4831   Si       0.78878    0.99726    0.78282    1.000
    N4832    N        0.80154    0.97433    0.81947    1.000
    N4833    N        0.80459    0.91657    0.86506    1.000
    N4834    N        0.80757    0.98045    0.74585    1.000
    N4835    N        0.76259    0.93099    0.74693    1.000
    N4836    N        0.81005    0.79391    0.91405    1.000
    N4837    N        0.76613    0.82376    0.95496    1.000
    Si4838   Si       0.79616    0.83332    0.92709    1.000
    Si4839   Si       0.77828    0.77133    0.89536    1.000
    N4840    N        0.78587    0.85370    0.89166    1.000
    Si4841   Si       0.78063    0.81950    0.99479    1.000
    Si4842   Si       0.78389    0.99417    0.90541    1.000
    N4843    N        0.78841    0.90246    0.93990    1.000
    Si4844   Si       0.78325    0.89630    0.89679    1.000
    N4845    N        0.80131    0.96907    0.93734    1.000
    Si4846   Si       0.77599    0.94077    0.95794    1.000
    N4847    N        0.76234    0.96751    0.88024    1.000
    Si4848   Si       0.75562    0.77717    0.82042    1.000
    Si4849   Si       0.83789    0.05175    0.04560    1.000
    Si4850   Si       0.83797    0.10012    0.10173    1.000
    Si4851   Si       0.83276    0.12450    0.02724    1.000
    N4852    N        0.86069    0.06943    0.07839    1.000
    N4853    N        0.86250    0.03048    0.01961    1.000
    N4854    N        0.81510    0.08303    0.02261    1.000
    N4855    N        0.82939    0.13216    0.06929    1.000
    Si4856   Si       0.83445    0.19283    0.01039    1.000
    N4857    N        0.83008    0.20249    0.10428    1.000
    N4858    N        0.85747    0.13187    0.18702    1.000
    N4859    N        0.86835    0.18809    0.04039    1.000
    N4860    N        0.82709    0.06848    0.17037    1.000
    Si4861   Si       0.83897    0.02717    0.15523    1.000
    Si4862   Si       0.86475    0.09225    0.17360    1.000
    Si4863   Si       0.87122    0.23859    0.23656    1.000
    Si4864   Si       0.82386    0.13326    0.21837    1.000
    N4865    N        0.83225    0.19819    0.17198    1.000
    Si4866   Si       0.84577    0.15995    0.15398    1.000
    Si4867   Si       0.81462    0.20336    0.21305    1.000
    Si4868   Si       0.81684    0.22537    0.14086    1.000
    N4869    N        0.87220    0.12555    0.00999    1.000
    Si4870   Si       0.87369    0.18890    0.09110    1.000
    N4871    N        0.85337    0.01078    0.19051    1.000
    N4872    N        0.83925    0.10367    0.29369    1.000
    Si4873   Si       0.83393    0.02309    0.31169    1.000
    N4874    N        0.81220    0.04221    0.27946    1.000
    N4875    N        0.83680    0.23710    0.31627    1.000
    Si4876   Si       0.83429    0.19984    0.33865    1.000
    Si4877   Si       0.84000    0.14675    0.28623    1.000
    N4878    N        0.85652    0.16706    0.32106    1.000
    N4879    N        0.83555    0.21941    0.25049    1.000
    N4880    N        0.85383    0.15007    0.24497    1.000
    Si4881   Si       0.81349    0.24093    0.28052    1.000
    Si4882   Si       0.82683    0.07240    0.45757    1.000
    Si4883   Si       0.83533    0.09733    0.39122    1.000
    N4884    N        0.81824    0.10349    0.42881    1.000
    N4885    N        0.86468    0.06679    0.39436    1.000
    N4886    N        0.86890    0.06571    0.46328    1.000
    N4887    N        0.86109    0.20077    0.37406    1.000
    Si4888   Si       0.85887    0.17115    0.40657    1.000
    N4889    N        0.85407    0.13509    0.38098    1.000
    N4890    N        0.83122    0.24484    0.43361    1.000
    N4891    N        0.82384    0.17553    0.43415    1.000
    N4892    N        0.81293    0.09294    0.49303    1.000
    Si4893   Si       0.82993    0.09343    0.53154    1.000
    N4894    N        0.82106    0.13120    0.55312    1.000
    N4895    N        0.83108    0.11054    0.61992    1.000
    N4896    N        0.83774    0.20022    0.72396    1.000
    N4897    N        0.80977    0.06941    0.56186    1.000
    Si4898   Si       0.85132    0.16203    0.55686    1.000
    N4899    N        0.83150    0.19881    0.57565    1.000
    Si4900   Si       0.86044    0.23156    0.57737    1.000
    N4901    N        0.87239    0.24909    0.53963    1.000
    N4902    N        0.82219    0.04571    0.70951    1.000
    Si4903   Si       0.86292    0.08436    0.63026    1.000
    Si4904   Si       0.85428    0.02691    0.68709    1.000
    N4905    N        0.84181    0.04904    0.64810    1.000
    Si4906   Si       0.84265    0.01168    0.62621    1.000
    N4907    N        0.85301    0.15357    0.67403    1.000
    N4908    N        0.83438    0.21789    0.65472    1.000
    Si4909   Si       0.81974    0.13519    0.65455    1.000
    Si4910   Si       0.85696    0.19460    0.68448    1.000
    Si4911   Si       0.83736    0.05960    0.80889    1.000
    N4912    N        0.85250    0.01932    0.81666    1.000
    N4913    N        0.83687    0.08003    0.76813    1.000
    Si4914   Si       0.86721    0.10950    0.77340    1.000
    Si4915   Si       0.81750    0.10845    0.87079    1.000
    N4916    N        0.83350    0.20487    0.79399    1.000
    Si4917   Si       0.84202    0.16613    0.81316    1.000
    Si4918   Si       0.85906    0.18933    0.75875    1.000
    N4919    N        0.85289    0.14928    0.77545    1.000
    N4920    N        0.81961    0.14809    0.84866    1.000
    N4921    N        0.83591    0.02634    0.95465    1.000
    N4922    N        0.82580    0.07327    0.90106    1.000
    N4923    N        0.86350    0.11706    0.87887    1.000
    Si4924   Si       0.86658    0.04663    0.97851    1.000
    Si4925   Si       0.86827    0.08483    0.90957    1.000
    N4926    N        0.86397    0.08369    0.95443    1.000
    Si4927   Si       0.84647    0.18989    0.94135    1.000
    N4928    N        0.85397    0.14810    0.94575    1.000
    Si4929   Si       0.85397    0.16064    0.87453    1.000
    N4930    N        0.85780    0.20944    0.97828    1.000
    N4931    N        0.86242    0.19483    0.89892    1.000
    N4932    N        0.83116    0.30157    0.09677    1.000
    N4933    N        0.81966    0.35362    0.04650    1.000
    Si4934   Si       0.86217    0.36500    0.04789    1.000
    N4935    N        0.85672    0.26198    0.04400    1.000
    Si4936   Si       0.82059    0.25968    0.01943    1.000
    Si4937   Si       0.86615    0.28756    0.07633    1.000
    N4938    N        0.84535    0.45524    0.04935    1.000
    Si4939   Si       0.82654    0.48308    0.07973    1.000
    Si4940   Si       0.84151    0.46018    0.00561    1.000
    N4941    N        0.86012    0.50841    0.09311    1.000
    Si4942   Si       0.82208    0.30580    0.13840    1.000
    Si4943   Si       0.85635    0.30655    0.19926    1.000
    N4944    N        0.86025    0.31168    0.15771    1.000
    N4945    N        0.84893    0.26584    0.20972    1.000
    N4946    N        0.81623    0.31877    0.21143    1.000
    N4947    N        0.82604    0.50865    0.15670    1.000
    N4948    N        0.84390    0.38355    0.14064    1.000
    Si4949   Si       0.85909    0.41076    0.17095    1.000
    Si4950   Si       0.83534    0.43440    0.22862    1.000
    Si4951   Si       0.85678    0.49215    0.18524    1.000
    N4952    N        0.85411    0.39530    0.20893    1.000
    N4953    N        0.84006    0.45119    0.18241    1.000
    Si4954   Si       0.84862    0.33754    0.31249    1.000
    N4955    N        0.85095    0.33792    0.26500    1.000
    Si4956   Si       0.86603    0.26426    0.33556    1.000
    Si4957   Si       0.85838    0.37814    0.24809    1.000
    N4958    N        0.84885    0.49079    0.35554    1.000
    N4959    N        0.82443    0.40193    0.26326    1.000
    Si4960   Si       0.84107    0.49364    0.25395    1.000
    N4961    N        0.83655    0.40524    0.36176    1.000
    N4962    N        0.86561    0.45664    0.25231    1.000
    N4963    N        0.85039    0.27560    0.37334    1.000
    Si4964   Si       0.81508    0.30219    0.47168    1.000
    N4965    N        0.85129    0.28535    0.48858    1.000
    Si4966   Si       0.83860    0.37155    0.39027    1.000
    N4967    N        0.83065    0.31249    0.43234    1.000
    Si4968   Si       0.82438    0.27830    0.40639    1.000
    Si4969   Si       0.86562    0.45071    0.45964    1.000
    Si4970   Si       0.82852    0.47735    0.39183    1.000
    N4971    N        0.84272    0.45122    0.42235    1.000
    N4972    N        0.81500    0.38489    0.42411    1.000
    Si4973   Si       0.86401    0.25665    0.45863    1.000
    N4974    N        0.83487    0.31163    0.54980    1.000
    Si4975   Si       0.82858    0.30441    0.59231    1.000
    Si4976   Si       0.82406    0.34840    0.52706    1.000
    Si4977   Si       0.86422    0.28905    0.52877    1.000
    N4978    N        0.85538    0.37676    0.52140    1.000
    N4979    N        0.84181    0.26315    0.60076    1.000
    N4980    N        0.84989    0.32954    0.61949    1.000
    N4981    N        0.84735    0.39190    0.58642    1.000
    Si4982   Si       0.84733    0.40841    0.54720    1.000
    Si4983   Si       0.85203    0.47686    0.53766    1.000
    N4984    N        0.81890    0.48417    0.56421    1.000
    Si4985   Si       0.81985    0.40987    0.61826    1.000
    N4986    N        0.84170    0.46824    0.49487    1.000
    Si4987   Si       0.84366    0.35504    0.65506    1.000
    N4988    N        0.84438    0.33006    0.68983    1.000
    Si4989   Si       0.87313    0.42156    0.66813    1.000
    Si4990   Si       0.86450    0.48929    0.70520    1.000
    N4991    N        0.84611    0.50388    0.63558    1.000
    N4992    N        0.85585    0.40869    0.70488    1.000
    N4993    N        0.84245    0.43852    0.64073    1.000
    N4994    N        0.81985    0.48737    0.69534    1.000
    Si4995   Si       0.82314    0.40001    0.73481    1.000
    Si4996   Si       0.81510    0.47056    0.65208    1.000
    Si4997   Si       0.87353    0.36305    0.60394    1.000
    Si4998   Si       0.84271    0.25737    0.64471    1.000
    N4999    N        0.87023    0.47607    0.74514    1.000
    Si5000   Si       0.84462    0.35421    0.79702    1.000
    N5001    N        0.85663    0.28510    0.84607    1.000
    N5002    N        0.85960    0.30729    0.77852    1.000
    Si5003   Si       0.81647    0.29761    0.77711    1.000
    Si5004   Si       0.81532    0.27268    0.84406    1.000
    N5005    N        0.84954    0.37386    0.75706    1.000
    N5006    N        0.83278    0.39179    0.81885    1.000
    Si5007   Si       0.83380    0.47193    0.76678    1.000
    N5008    N        0.84095    0.45966    0.80678    1.000
    Si5009   Si       0.84019    0.39091    0.86097    1.000
    Si5010   Si       0.81299    0.43184    0.82335    1.000
    N5011    N        0.84714    0.26508    0.91439    1.000
    N5012    N        0.81621    0.27183    0.97890    1.000
    N5013    N        0.82551    0.35547    0.87975    1.000
    Si5014   Si       0.85304    0.34915    0.91202    1.000
    N5015    N        0.83162    0.32514    0.94194    1.000
    Si5016   Si       0.84798    0.28558    0.95259    1.000
    N5017    N        0.81597    0.42576    0.86697    1.000
    Si5018   Si       0.82709    0.40815    0.95392    1.000
    N5019    N        0.81939    0.48991    0.89775    1.000
    N5020    N        0.85139    0.42040    0.99099    1.000
    N5021    N        0.85706    0.38798    0.93138    1.000
    Si5022   Si       0.86160    0.48630    0.90088    1.000
    Si5023   Si       0.83220    0.57887    0.02224    1.000
    Si5024   Si       0.82739    0.58225    0.10556    1.000
    N5025    N        0.82436    0.57358    0.06316    1.000
    N5026    N        0.86219    0.60972    0.01838    1.000
    N5027    N        0.84764    0.54277    0.00304    1.000
    N5028    N        0.81565    0.62322    0.11055    1.000
    N5029    N        0.85922    0.74491    0.01490    1.000
    Si5030   Si       0.85440    0.64801    0.03427    1.000
    N5031    N        0.85866    0.73431    0.08481    1.000
    Si5032   Si       0.85769    0.69243    0.09574    1.000
    N5033    N        0.81390    0.68691    0.10118    1.000
    N5034    N        0.85958    0.67969    0.00374    1.000
    Si5035   Si       0.82217    0.75716    0.08628    1.000
    N5036    N        0.84943    0.68731    0.20138    1.000
    Si5037   Si       0.81645    0.75532    0.01073    1.000
    Si5038   Si       0.86171    0.71706    0.23056    1.000
    Si5039   Si       0.86115    0.52587    0.13188    1.000
    N5040    N        0.85492    0.56798    0.13443    1.000
    Si5041   Si       0.85089    0.58415    0.17401    1.000
    N5042    N        0.85550    0.51637    0.22016    1.000
    N5043    N        0.84288    0.62682    0.17127    1.000
    N5044    N        0.82587    0.74089    0.22840    1.000
    Si5045   Si       0.86744    0.66155    0.17215    1.000
    Si5046   Si       0.82854    0.59985    0.32093    1.000
    N5047    N        0.86018    0.57170    0.32859    1.000
    Si5048   Si       0.86154    0.54219    0.29722    1.000
    N5049    N        0.82812    0.51716    0.28701    1.000
    N5050    N        0.85115    0.62777    0.29487    1.000
    Si5051   Si       0.84017    0.71104    0.35730    1.000
    Si5052   Si       0.84016    0.67000    0.29742    1.000
    N5053    N        0.85106    0.70061    0.26909    1.000
    N5054    N        0.83171    0.75054    0.34079    1.000
    N5055    N        0.86366    0.68920    0.32809    1.000
    N5056    N        0.83067    0.58254    0.41236    1.000
    N5057    N        0.84662    0.54751    0.47040    1.000
    Si5058   Si       0.84732    0.54275    0.42518    1.000
    N5059    N        0.81826    0.51438    0.41192    1.000
    Si5060   Si       0.85888    0.50851    0.48529    1.000
    Si5061   Si       0.86872    0.60601    0.41430    1.000
    Si5062   Si       0.85265    0.68533    0.42575    1.000
    N5063    N        0.86220    0.71362    0.39247    1.000
    N5064    N        0.85029    0.64547    0.40744    1.000
    N5065    N        0.81001    0.61142    0.35753    1.000
    Si5066   Si       0.81052    0.64567    0.38642    1.000
    N5067    N        0.85835    0.58090    0.53643    1.000
    Si5068   Si       0.86295    0.62390    0.53827    1.000
    Si5069   Si       0.81923    0.56427    0.55394    1.000
    Si5070   Si       0.85382    0.61149    0.61716    1.000
    N5071    N        0.86832    0.57104    0.61663    1.000
    N5072    N        0.86203    0.63292    0.58126    1.000
    Si5073   Si       0.84087    0.73202    0.52703    1.000
    N5074    N        0.85416    0.69725    0.56405    1.000
    Si5075   Si       0.84938    0.73140    0.59816    1.000
    N5076    N        0.82632    0.64361    0.52322    1.000
    Si5077   Si       0.81922    0.67721    0.55126    1.000
    N5078    N        0.82694    0.75281    0.56351    1.000
    N5079    N        0.86491    0.53241    0.70777    1.000
    Si5080   Si       0.83649    0.54311    0.62552    1.000
    Si5081   Si       0.82234    0.53411    0.69692    1.000
    N5082    N        0.81231    0.55621    0.66092    1.000
    Si5083   Si       0.84953    0.73980    0.73542    1.000
    N5084    N        0.83312    0.67899    0.67152    1.000
    Si5085   Si       0.81952    0.71890    0.66644    1.000
    Si5086   Si       0.82021    0.65226    0.70304    1.000
    N5087    N        0.85151    0.64410    0.73301    1.000
    N5088    N        0.84706    0.74086    0.69154    1.000
    N5089    N        0.81390    0.72193    0.62298    1.000
    N5090    N        0.85438    0.52252    0.81464    1.000
    Si5091   Si       0.82676    0.58096    0.84674    1.000
    Si5092   Si       0.84942    0.61335    0.76408    1.000
    N5093    N        0.86578    0.58692    0.82702    1.000
    Si5094   Si       0.82163    0.68644    0.97735    1.000
    N5095    N        0.86331    0.64425    0.79443    1.000
    N5096    N        0.83202    0.69041    0.84843    1.000
    N5097    N        0.83813    0.70404    0.75422    1.000
    Si5098   Si       0.86779    0.67233    0.76165    1.000
    N5099    N        0.86971    0.64217    0.86724    1.000
    N5100    N        0.86707    0.51705    0.93109    1.000
    Si5101   Si       0.83741    0.51520    0.96830    1.000
    N5102    N        0.82581    0.55428    0.87960    1.000
    N5103    N        0.83340    0.60681    0.92117    1.000
    N5104    N        0.81580    0.54737    0.94487    1.000
    Si5105   Si       0.84693    0.55897    0.91726    1.000
    N5106    N        0.83493    0.69745    0.93760    1.000
    N5107    N        0.83253    0.75667    0.82401    1.000
    N5108    N        0.84004    0.79533    0.09793    1.000
    Si5109   Si       0.86788    0.82940    0.09919    1.000
    Si5110   Si       0.83221    0.97688    0.20772    1.000
    Si5111   Si       0.83211    0.93576    0.00686    1.000
    N5112    N        0.83303    0.93341    0.11162    1.000
    N5113    N        0.82748    0.94231    0.04923    1.000
    Si5114   Si       0.85986    0.94284    0.07736    1.000
    Si5115   Si       0.85242    0.93999    0.15075    1.000
    N5116    N        0.84172    0.84823    0.13072    1.000
    Si5117   Si       0.82449    0.87623    0.15786    1.000
    Si5118   Si       0.82373    0.80959    0.13614    1.000
    N5119    N        0.84788    0.78731    0.16505    1.000
    Si5120   Si       0.84412    0.83722    0.21799    1.000
    Si5121   Si       0.82345    0.76474    0.19125    1.000
    N5122    N        0.84776    0.79960    0.23949    1.000
    N5123    N        0.85856    0.95309    0.23320    1.000
    N5124    N        0.85805    0.90215    0.17216    1.000
    N5125    N        0.81802    0.95765    0.17179    1.000
    N5126    N        0.84822    0.97228    0.99455    1.000
    N5127    N        0.84629    0.81293    0.31470    1.000
    N5128    N        0.85577    0.85895    0.25530    1.000
    Si5129   Si       0.82965    0.84101    0.28523    1.000
    Si5130   Si       0.86379    0.77456    0.32575    1.000
    Si5131   Si       0.81491    0.82805    0.33980    1.000
    N5132    N        0.81027    0.86522    0.31834    1.000
    N5133    N        0.85304    0.92424    0.32218    1.000
    Si5134   Si       0.82673    0.96030    0.26591    1.000
    N5135    N        0.84462    0.98523    0.29446    1.000
    Si5136   Si       0.81209    0.90854    0.31866    1.000
    N5137    N        0.81898    0.78813    0.43879    1.000
    Si5138   Si       0.85366    0.77872    0.46402    1.000
    Si5139   Si       0.84456    0.86529    0.39836    1.000
    N5140    N        0.81921    0.83224    0.38337    1.000
    N5141    N        0.86959    0.86645    0.43439    1.000
    N5142    N        0.83821    0.97561    0.47576    1.000
    N5143    N        0.82842    0.89385    0.47863    1.000
    Si5144   Si       0.81347    0.93603    0.38886    1.000
    N5145    N        0.85807    0.94413    0.38312    1.000
    Si5146   Si       0.82870    0.99516    0.43799    1.000
    N5147    N        0.86625    0.00444    0.41586    1.000
    N5148    N        0.81646    0.89847    0.40848    1.000
    N5149    N        0.84435    0.83334    0.59410    1.000
    Si5150   Si       0.84405    0.79289    0.57622    1.000
    Si5151   Si       0.85697    0.86680    0.57004    1.000
    N5152    N        0.82525    0.81382    0.53479    1.000
    N5153    N        0.86431    0.77184    0.61077    1.000
    Si5154   Si       0.86596    0.81791    0.52025    1.000
    N5155    N        0.82362    0.88834    0.55353    1.000
    Si5156   Si       0.82926    0.90978    0.51712    1.000
    N5157    N        0.84423    0.94746    0.60068    1.000
    N5158    N        0.85563    0.98085    0.53546    1.000
    Si5159   Si       0.81955    0.98175    0.51394    1.000
    N5160    N        0.82936    0.88829    0.64399    1.000
    Si5161   Si       0.83007    0.84611    0.63267    1.000
    N5162    N        0.86169    0.82453    0.65728    1.000
    N5163    N        0.87097    0.87610    0.71248    1.000
    Si5164   Si       0.85783    0.91589    0.62644    1.000
    N5165    N        0.85219    0.99154    0.66382    1.000
    N5166    N        0.82838    0.76279    0.49662    1.000
    N5167    N        0.84694    0.84098    0.77041    1.000
    Si5168   Si       0.85690    0.84397    0.84829    1.000
    N5169    N        0.84703    0.77407    0.76150    1.000
    N5170    N        0.81495    0.83927    0.83384    1.000
    Si5171   Si       0.86817    0.77179    0.84094    1.000
    Si5172   Si       0.86128    0.87907    0.75450    1.000
    Si5173   Si       0.80812    0.88372    0.97461    1.000
    Si5174   Si       0.83572    0.98751    0.84118    1.000
    N5175    N        0.86367    0.95539    0.85618    1.000
    Si5176   Si       0.84854    0.91460    0.85944    1.000
    N5177    N        0.82929    0.91005    0.75176    1.000
    N5178    N        0.86549    0.88244    0.83456    1.000
    Si5179   Si       0.84221    0.95165    0.74602    1.000
    Si5180   Si       0.86304    0.87056    0.92325    1.000
    Si5181   Si       0.85277    0.80190    0.91042    1.000
    N5182    N        0.86621    0.76836    0.88542    1.000
    Si5183   Si       0.84890    0.81777    0.97349    1.000
    N5184    N        0.86030    0.83987    0.89148    1.000
    N5185    N        0.83172    0.85136    0.94886    1.000
    N5186    N        0.81689    0.79404    0.99032    1.000
    Si5187   Si       0.83910    0.98378    0.95429    1.000
    N5188    N        0.81554    0.00585    0.87616    1.000
    N5189    N        0.86509    0.90951    0.90034    1.000
    N5190    N        0.84615    0.90150    0.98492    1.000
    Si5191   Si       0.88805    0.06222    0.11005    1.000
    N5192    N        0.91728    0.16711    0.18287    1.000
    Si5193   Si       0.90019    0.13040    0.11548    1.000
    N5194    N        0.90390    0.14790    0.07406    1.000
    N5195    N        0.89980    0.22369    0.08284    1.000
    Si5196   Si       0.89472    0.15184    0.03333    1.000
    Si5197   Si       0.88511    0.22769    0.04180    1.000
    N5198    N        0.91474    0.24056    0.01165    1.000
    Si5199   Si       0.92704    0.25500    0.09468    1.000
    N5200    N        0.89243    0.20087    0.22574    1.000
    Si5201   Si       0.91021    0.08820    0.23062    1.000
    Si5202   Si       0.89416    0.02552    0.20049    1.000
    N5203    N        0.89076    0.06869    0.19878    1.000
    N5204    N        0.91882    0.12873    0.23668    1.000
    N5205    N        0.87659    0.02739    0.13257    1.000
    N5206    N        0.87349    0.09909    0.13058    1.000
    N5207    N        0.90142    0.01009    0.24103    1.000
    Si5208   Si       0.88583    0.15744    0.21672    1.000
    N5209    N        0.87775    0.16547    0.12706    1.000
    N5210    N        0.89601    0.10883    0.33448    1.000
    N5211    N        0.89535    0.07448    0.26985    1.000
    Si5212   Si       0.90781    0.02574    0.33346    1.000
    Si5213   Si       0.92227    0.03912    0.26567    1.000
    Si5214   Si       0.87483    0.08414    0.30552    1.000
    N5215    N        0.92175    0.04926    0.36551    1.000
    N5216    N        0.87031    0.04399    0.32053    1.000
    N5217    N        0.90363    0.24053    0.33351    1.000
    Si5218   Si       0.88332    0.14782    0.34995    1.000
    N5219    N        0.92018    0.17133    0.35481    1.000
    Si5220   Si       0.92210    0.25084    0.29507    1.000
    Si5221   Si       0.90320    0.21197    0.36679    1.000
    Si5222   Si       0.89871    0.08459    0.37262    1.000
    N5223    N        0.92340    0.03530    0.43253    1.000
    Si5224   Si       0.88103    0.04367    0.42829    1.000
    N5225    N        0.91314    0.11986    0.47453    1.000
    N5226    N        0.91903    0.10652    0.40300    1.000
    Si5227   Si       0.89120    0.08632    0.49227    1.000
    Si5228   Si       0.92169    0.13400    0.43549    1.000
    N5229    N        0.92167    0.22675    0.40658    1.000
    Si5230   Si       0.91364    0.20264    0.44631    1.000
    N5231    N        0.89137    0.22533    0.47360    1.000
    N5232    N        0.89515    0.16838    0.42786    1.000
    Si5233   Si       0.91083    0.03555    0.60003    1.000
    Si5234   Si       0.89460    0.10211    0.56686    1.000
    N5235    N        0.88290    0.07049    0.59476    1.000
    N5236    N        0.92398    0.05709    0.50222    1.000
    N5237    N        0.87179    0.09396    0.53043    1.000
    N5238    N        0.88245    0.14251    0.57778    1.000
    Si5239   Si       0.89281    0.21782    0.51780    1.000
    N5240    N        0.90034    0.21384    0.58605    1.000
    Si5241   Si       0.90921    0.17213    0.59885    1.000
    N5242    N        0.86892    0.18189    0.52370    1.000
    N5243    N        0.89074    0.01568    0.70547    1.000
    N5244    N        0.89564    0.09787    0.65707    1.000
    Si5245   Si       0.92383    0.01409    0.73315    1.000
    N5246    N        0.91351    0.14722    0.70832    1.000
    Si5247   Si       0.90363    0.25143    0.69317    1.000
    N5248    N        0.89643    0.20959    0.69494    1.000
    Si5249   Si       0.89385    0.13921    0.67113    1.000
    Si5250   Si       0.92242    0.18605    0.72429    1.000
    N5251    N        0.90807    0.16496    0.64073    1.000
    N5252    N        0.93386    0.02249    0.56592    1.000
    N5253    N        0.90811    0.10356    0.75875    1.000
    Si5254   Si       0.88982    0.11797    0.84313    1.000
    N5255    N        0.90738    0.03286    0.76923    1.000
    Si5256   Si       0.91196    0.07152    0.78827    1.000
    N5257    N        0.87781    0.08873    0.81264    1.000
    N5258    N        0.90153    0.19887    0.75911    1.000
    Si5259   Si       0.91966    0.22441    0.78758    1.000
    N5260    N        0.87883    0.16066    0.83803    1.000
    N5261    N        0.92891    0.20730    0.82494    1.000
    N5262    N        0.90820    0.07059    0.91046    1.000
    N5263    N        0.92036    0.11726    0.96229    1.000
    N5264    N        0.91128    0.04551    0.97960    1.000
    Si5265   Si       0.87819    0.12269    0.96808    1.000
    Si5266   Si       0.89448    0.23436    0.97376    1.000
    N5267    N        0.90792    0.25293    0.88661    1.000
    Si5268   Si       0.90162    0.21253    0.89929    1.000
    N5269    N        0.91378    0.21349    0.94089    1.000
    N5270    N        0.89719    0.28404    0.10629    1.000
    N5271    N        0.87765    0.32731    0.05855    1.000
    Si5272   Si       0.91597    0.33540    0.03864    1.000
    N5273    N        0.89317    0.36776    0.01470    1.000
    N5274    N        0.90204    0.45484    0.09096    1.000
    N5275    N        0.90777    0.43551    0.02467    1.000
    Si5276   Si       0.88277    0.43314    0.05938    1.000
    Si5277   Si       0.90063    0.49781    0.08217    1.000
    N5278    N        0.90900    0.49895    0.04002    1.000
    N5279    N        0.87291    0.39565    0.07585    1.000
    Si5280   Si       0.88012    0.38650    0.11706    1.000
    Si5281   Si       0.89976    0.31345    0.13784    1.000
    N5282    N        0.89116    0.31791    0.21828    1.000
    N5283    N        0.90935    0.35428    0.12612    1.000
    Si5284   Si       0.92968    0.50608    0.14857    1.000
    Si5285   Si       0.92476    0.43626    0.12390    1.000
    N5286    N        0.89446    0.41688    0.14746    1.000
    N5287    N        0.88834    0.50488    0.15826    1.000
    Si5288   Si       0.88519    0.30776    0.26529    1.000
    N5289    N        0.91889    0.33453    0.27974    1.000
    Si5290   Si       0.90762    0.37280    0.29764    1.000
    N5291    N        0.89247    0.26232    0.26529    1.000
    N5292    N        0.87586    0.37007    0.32491    1.000
    N5293    N        0.86893    0.29976    0.31046    1.000
    Si5294   Si       0.88441    0.48082    0.33438    1.000
    N5295    N        0.89349    0.39654    0.26416    1.000
    Si5296   Si       0.89629    0.43793    0.27649    1.000
    N5297    N        0.91889    0.48545    0.36002    1.000
    N5298    N        0.88211    0.44133    0.31694    1.000
    Si5299   Si       0.92326    0.50311    0.27689    1.000
    Si5300   Si       0.87252    0.40887    0.34316    1.000
    N5301    N        0.87750    0.35490    0.40027    1.000
    N5302    N        0.88940    0.28368    0.43410    1.000
    N5303    N        0.88910    0.34085    0.46920    1.000
    Si5304   Si       0.92322    0.27110    0.41155    1.000
    Si5305   Si       0.91399    0.37738    0.39518    1.000
    Si5306   Si       0.88541    0.37790    0.48967    1.000
    Si5307   Si       0.87339    0.32376    0.43147    1.000
    N5308    N        0.88648    0.48969    0.45755    1.000
    N5309    N        0.89904    0.41641    0.37807    1.000
    Si5310   Si       0.92638    0.45091    0.38491    1.000
    N5311    N        0.88849    0.41568    0.46873    1.000
    N5312    N        0.90219    0.30760    0.53104    1.000
    N5313    N        0.90909    0.35090    0.58505    1.000
    N5314    N        0.91413    0.28062    0.59335    1.000
    N5315    N        0.92439    0.36949    0.51099    1.000
    N5316    N        0.88956    0.46743    0.67667    1.000
    Si5317   Si       0.92805    0.31588    0.56516    1.000
    Si5318   Si       0.91451    0.44882    0.56619    1.000
    N5319    N        0.90353    0.45996    0.60512    1.000
    N5320    N        0.87573    0.44208    0.54757    1.000
    N5321    N        0.88376    0.26565    0.65575    1.000
    Si5322   Si       0.91202    0.29151    0.63531    1.000
    N5323    N        0.90700    0.32801    0.65863    1.000
    N5324    N        0.88648    0.28216    0.71766    1.000
    N5325    N        0.90715    0.35399    0.71605    1.000
    Si5326   Si       0.88622    0.31901    0.69522    1.000
    Si5327   Si       0.91767    0.37117    0.66095    1.000
    N5328    N        0.87702    0.38253    0.64381    1.000
    Si5329   Si       0.93095    0.45153    0.68920    1.000
    Si5330   Si       0.88340    0.38665    0.73258    1.000
    Si5331   Si       0.88572    0.48595    0.63549    1.000
    N5332    N        0.91714    0.41126    0.68377    1.000
    Si5333   Si       0.92120    0.32753    0.49587    1.000
    Si5334   Si       0.89543    0.28908    0.75837    1.000
    Si5335   Si       0.88482    0.30320    0.81760    1.000
    Si5336   Si       0.90557    0.37212    0.84660    1.000
    N5337    N        0.87784    0.34723    0.82436    1.000
    N5338    N        0.90392    0.26575    0.79309    1.000
    N5339    N        0.88125    0.39621    0.87597    1.000
    Si5340   Si       0.90591    0.45723    0.75919    1.000
    N5341    N        0.90694    0.47522    0.79862    1.000
    N5342    N        0.90426    0.41312    0.75900    1.000
    N5343    N        0.88339    0.47959    0.86434    1.000
    Si5344   Si       0.87243    0.48510    0.82205    1.000
    N5345    N        0.88742    0.27901    0.96792    1.000
    N5346    N        0.88577    0.32261    0.90064    1.000
    Si5347   Si       0.87445    0.28098    0.88522    1.000
    Si5348   Si       0.92459    0.30093    0.97044    1.000
    Si5349   Si       0.92771    0.32880    0.90281    1.000
    N5350    N        0.92677    0.50150    0.91160    1.000
    Si5351   Si       0.89029    0.41199    0.91815    1.000
    N5352    N        0.87043    0.48602    0.98691    1.000
    Si5353   Si       0.89935    0.49332    0.95058    1.000
    Si5354   Si       0.92182    0.46867    0.88317    1.000
    N5355    N        0.91471    0.40249    0.95787    1.000
    Si5356   Si       0.89216    0.40735    0.99478    1.000
    N5357    N        0.87513    0.45399    0.92545    1.000
    N5358    N        0.93338    0.38907    0.82037    1.000
    Si5359   Si       0.90495    0.59934    0.01759    1.000
    N5360    N        0.90962    0.56058    0.03345    1.000
    Si5361   Si       0.88604    0.52587    0.01190    1.000
    N5362    N        0.91694    0.59824    0.09761    1.000
    N5363    N        0.92566    0.52424    0.10906    1.000
    N5364    N        0.92351    0.63138    0.03764    1.000
    Si5365   Si       0.91075    0.63805    0.08019    1.000
    N5366    N        0.91180    0.71997    0.03928    1.000
    Si5367   Si       0.88144    0.74933    0.05248    1.000
    N5368    N        0.87249    0.65825    0.07229    1.000
    Si5369   Si       0.88635    0.71375    0.00462    1.000
    Si5370   Si       0.88432    0.54637    0.22765    1.000
    N5371    N        0.88607    0.57719    0.19686    1.000
    Si5372   Si       0.91514    0.61123    0.20214    1.000
    N5373    N        0.91899    0.52243    0.23851    1.000
    N5374    N        0.90993    0.62260    0.24226    1.000
    N5375    N        0.90822    0.64725    0.17617    1.000
    N5376    N        0.87534    0.68347    0.13413    1.000
    Si5377   Si       0.91892    0.67505    0.14215    1.000
    Si5378   Si       0.92432    0.74349    0.19329    1.000
    N5379    N        0.89437    0.74505    0.22321    1.000
    Si5380   Si       0.89808    0.58682    0.34407    1.000
    Si5381   Si       0.88622    0.60758    0.27684    1.000
    N5382    N        0.91674    0.60534    0.30883    1.000
    N5383    N        0.92195    0.55334    0.35890    1.000
    N5384    N        0.87468    0.56897    0.26351    1.000
    N5385    N        0.88884    0.50878    0.30185    1.000
    Si5386   Si       0.88722    0.71310    0.29715    1.000
    N5387    N        0.91436    0.68922    0.27004    1.000
    N5388    N        0.92458    0.71897    0.32362    1.000
    N5389    N        0.89893    0.60786    0.38143    1.000
    N5390    N        0.88778    0.55799    0.42246    1.000
    Si5391   Si       0.88682    0.57053    0.46502    1.000
    N5392    N        0.88085    0.61203    0.45823    1.000
    Si5393   Si       0.92543    0.55615    0.40152    1.000
    N5394    N        0.88070    0.68251    0.45939    1.000
    Si5395   Si       0.89567    0.72163    0.47074    1.000
    Si5396   Si       0.88776    0.74891    0.39990    1.000
    Si5397   Si       0.89981    0.64768    0.47437    1.000
    N5398    N        0.88029    0.75194    0.44386    1.000
    N5399    N        0.88104    0.75674    0.28761    1.000
    Si5400   Si       0.89039    0.55149    0.53559    1.000
    N5401    N        0.91537    0.54601    0.57001    1.000
    Si5402   Si       0.90805    0.55567    0.61208    1.000
    N5403    N        0.91178    0.55654    0.49686    1.000
    N5404    N        0.87034    0.51517    0.52672    1.000
    N5405    N        0.89768    0.64161    0.51772    1.000
    N5406    N        0.92218    0.66727    0.58534    1.000
    N5407    N        0.91796    0.73191    0.57969    1.000
    N5408    N        0.88273    0.73071    0.51158    1.000
    Si5409   Si       0.87989    0.67217    0.58796    1.000
    Si5410   Si       0.90518    0.75199    0.54314    1.000
    N5411    N        0.87636    0.70317    0.61982    1.000
    N5412    N        0.90036    0.59227    0.69684    1.000
    Si5413   Si       0.89233    0.56116    0.72563    1.000
    Si5414   Si       0.91458    0.61540    0.66072    1.000
    N5415    N        0.91529    0.51917    0.63532    1.000
    N5416    N        0.89941    0.69454    0.68002    1.000
    N5417    N        0.88135    0.63567    0.64210    1.000
    Si5418   Si       0.89034    0.73881    0.68744    1.000
    Si5419   Si       0.91425    0.72571    0.62632    1.000
    N5420    N        0.89400    0.73839    0.72898    1.000
    Si5421   Si       0.87248    0.67518    0.65388    1.000
    N5422    N        0.91973    0.54959    0.80666    1.000
    Si5423   Si       0.88393    0.62612    0.82963    1.000
    Si5424   Si       0.87789    0.55599    0.79991    1.000
    N5425    N        0.92587    0.61878    0.82678    1.000
    N5426    N        0.91017    0.67796    0.83292    1.000
    N5427    N        0.90926    0.68072    0.76009    1.000
    N5428    N        0.89716    0.74040    0.84177    1.000
    Si5429   Si       0.92427    0.71583    0.82084    1.000
    Si5430   Si       0.87407    0.68469    0.85762    1.000
    N5431    N        0.92009    0.59851    0.97802    1.000
    N5432    N        0.88882    0.58120    0.90723    1.000
    N5433    N        0.91449    0.52730    0.97799    1.000
    Si5434   Si       0.87166    0.62228    0.90679    1.000
    Si5435   Si       0.92702    0.63225    0.95139    1.000
    N5436    N        0.88806    0.70247    0.89398    1.000
    Si5437   Si       0.90071    0.74368    0.88701    1.000
    Si5438   Si       0.87709    0.68932    0.93412    1.000
    N5439    N        0.90122    0.70841    0.96335    1.000
    N5440    N        0.88962    0.64513    0.93702    1.000
    N5441    N        0.87056    0.57479    0.76124    1.000
    N5442    N        0.92570    0.75802    0.91732    1.000
    N5443    N        0.90068    0.78637    0.04784    1.000
    Si5444   Si       0.89742    0.82671    0.03307    1.000
    N5445    N        0.88665    0.85016    0.06747    1.000
    Si5446   Si       0.91103    0.88750    0.06221    1.000
    N5447    N        0.90659    0.90181    0.02200    1.000
    N5448    N        0.89392    0.91790    0.08720    1.000
    N5449    N        0.88280    0.97599    0.05991    1.000
    N5450    N        0.91299    0.98151    0.99872    1.000
    Si5451   Si       0.92651    0.97793    0.06781    1.000
    Si5452   Si       0.92795    0.93760    0.00713    1.000
    Si5453   Si       0.87485    0.99073    0.02108    1.000
    N5454    N        0.90086    0.82119    0.12382    1.000
    Si5455   Si       0.88839    0.80557    0.16255    1.000
    N5456    N        0.92259    0.78234    0.17423    1.000
    Si5457   Si       0.89138    0.87932    0.18488    1.000
    N5458    N        0.87985    0.83721    0.18939    1.000
    N5459    N        0.92308    0.00593    0.17613    1.000
    N5460    N        0.91535    0.88436    0.14593    1.000
    N5461    N        0.90862    0.88288    0.22603    1.000
    N5462    N        0.89207    0.95554    0.14273    1.000
    N5463    N        0.87229    0.83881    0.00116    1.000
    Si5464   Si       0.90779    0.99746    0.13722    1.000
    Si5465   Si       0.91541    0.92166    0.12530    1.000
    N5466    N        0.92740    0.94950    0.21730    1.000
    Si5467   Si       0.89946    0.85666    0.25832    1.000
    N5468    N        0.91128    0.86245    0.29819    1.000
    N5469    N        0.89315    0.76973    0.36072    1.000
    Si5470   Si       0.91130    0.86929    0.33989    1.000
    N5471    N        0.91237    0.81432    0.25143    1.000
    Si5472   Si       0.88499    0.77948    0.25031    1.000
    N5473    N        0.87242    0.87269    0.36382    1.000
    Si5474   Si       0.87718    0.96037    0.49159    1.000
    N5475    N        0.90546    0.95525    0.28731    1.000
    N5476    N        0.89207    0.98795    0.34688    1.000
    N5477    N        0.91635    0.91586    0.33889    1.000
    Si5478   Si       0.87623    0.91561    0.35881    1.000
    Si5479   Si       0.87361    0.96069    0.31535    1.000
    Si5480   Si       0.89856    0.84293    0.45548    1.000
    N5481    N        0.91358    0.87954    0.47880    1.000
    N5482    N        0.87755    0.81350    0.47995    1.000
    Si5483   Si       0.87121    0.89827    0.46372    1.000
    N5484    N        0.88599    0.93473    0.45016    1.000
    N5485    N        0.90978    0.98664    0.47935    1.000
    N5486    N        0.92574    0.96560    0.40288    1.000
    Si5487   Si       0.88585    0.97790    0.38937    1.000
    Si5488   Si       0.92152    0.95924    0.44449    1.000
    Si5489   Si       0.89877    0.96670    0.24577    1.000
    N5490    N        0.88318    0.78815    0.54920    1.000
    N5491    N        0.87998    0.85698    0.53443    1.000
    Si5492   Si       0.90487    0.88880    0.51933    1.000
    N5493    N        0.90851    0.94977    0.57052    1.000
    Si5494   Si       0.91690    0.90957    0.58532    1.000
    N5495    N        0.88023    0.89081    0.59751    1.000
    N5496    N        0.87304    0.91971    0.51175    1.000
    N5497    N        0.87745    0.00573    0.60098    1.000
    N5498    N        0.91066    0.76019    0.65498    1.000
    Si5499   Si       0.88719    0.79672    0.63712    1.000
    N5500    N        0.91322    0.87180    0.67022    1.000
    Si5501   Si       0.88499    0.84411    0.68698    1.000
    N5502    N        0.88950    0.81224    0.71651    1.000
    N5503    N        0.92651    0.81753    0.63423    1.000
    Si5504   Si       0.89578    0.90747    0.69351    1.000
    Si5505   Si       0.88643    0.97153    0.68090    1.000
    N5506    N        0.88433    0.93101    0.65706    1.000
    N5507    N        0.87662    0.94599    0.71743    1.000
    Si5508   Si       0.87187    0.97076    0.57441    1.000
    N5509    N        0.91200    0.80580    0.77317    1.000
    N5510    N        0.88322    0.81151    0.83449    1.000
    Si5511   Si       0.92238    0.81566    0.81268    1.000
    Si5512   Si       0.87161    0.80724    0.75628    1.000
    Si5513   Si       0.90215    0.89049    0.81282    1.000
    Si5514   Si       0.90616    0.95993    0.84343    1.000
    N5515    N        0.89623    0.89990    0.77275    1.000
    N5516    N        0.91471    0.99362    0.82211    1.000
    Si5517   Si       0.90220    0.93943    0.75366    1.000
    N5518    N        0.92318    0.92201    0.83432    1.000
    Si5519   Si       0.88584    0.00291    0.79054    1.000
    N5520    N        0.87323    0.96304    0.77814    1.000
    Si5521   Si       0.91703    0.79124    0.94818    1.000
    N5522    N        0.89720    0.87566    0.94898    1.000
    N5523    N        0.87532    0.79932    0.94671    1.000
    Si5524   Si       0.88371    0.88018    0.99251    1.000
    N5525    N        0.92683    0.76535    0.98034    1.000
    N5526    N        0.92198    0.95975    0.88505    1.000
    Si5527   Si       0.91410    0.97195    0.95594    1.000
    N5528    N        0.87734    0.97382    0.93402    1.000
    Si5529   Si       0.88079    0.95091    0.89844    1.000
    N5530    N        0.96610    0.10841    0.06721    1.000
    Si5531   Si       0.96470    0.09185    0.10754    1.000
    Si5532   Si       0.95618    0.03040    0.08860    1.000
    N5533    N        0.93837    0.01860    0.05024    1.000
    Si5534   Si       0.93422    0.01946    0.00706    1.000
    N5535    N        0.92963    0.06182    0.10307    1.000
    N5536    N        0.93564    0.15251    0.02030    1.000
    Si5537   Si       0.94563    0.14881    0.06330    1.000
    N5538    N        0.97113    0.18007    0.07879    1.000
    Si5539   Si       0.97769    0.20705    0.11616    1.000
    N5540    N        0.94607    0.06232    0.23803    1.000
    N5541    N        0.97038    0.12683    0.19103    1.000
    N5542    N        0.94079    0.12326    0.12822    1.000
    Si5543   Si       0.98122    0.04441    0.21941    1.000
    N5544    N        0.98313    0.05737    0.17733    1.000
    Si5545   Si       0.96374    0.25271    0.23381    1.000
    Si5546   Si       0.93128    0.20030    0.20596    1.000
    N5547    N        0.96093    0.18137    0.23114    1.000
    Si5548   Si       0.96049    0.13936    0.23166    1.000
    N5549    N        0.94285    0.24043    0.19912    1.000
    N5550    N        0.97591    0.18228    0.15094    1.000
    N5551    N        0.95429    0.24181    0.12850    1.000
    Si5552   Si       0.94945    0.15073    0.16040    1.000
    N5553    N        0.93999    0.02183    0.30172    1.000
    N5554    N        0.97800    0.12700    0.36115    1.000
    N5555    N        0.95038    0.23197    0.26865    1.000
    Si5556   Si       0.96492    0.16414    0.34087    1.000
    N5557    N        0.96344    0.16366    0.29817    1.000
    Si5558   Si       0.97175    0.19532    0.27034    1.000
    N5559    N        0.97676    0.24602    0.36586    1.000
    N5560    N        0.97251    0.01266    0.37381    1.000
    Si5561   Si       0.96223    0.10843    0.39636    1.000
    Si5562   Si       0.94860    0.03941    0.39806    1.000
    N5563    N        0.97655    0.07088    0.40978    1.000
    Si5564   Si       0.93107    0.02518    0.47421    1.000
    N5565    N        0.94939    0.19137    0.46806    1.000
    Si5566   Si       0.98311    0.17283    0.44580    1.000
    Si5567   Si       0.96759    0.23193    0.40483    1.000
    N5568    N        0.96522    0.13889    0.42694    1.000
    N5569    N        0.97165    0.00954    0.47765    1.000
    N5570    N        0.98577    0.23999    0.49720    1.000
    Si5571   Si       0.96101    0.11380    0.59267    1.000
    Si5572   Si       0.94389    0.05554    0.54100    1.000
    N5573    N        0.93592    0.09093    0.56656    1.000
    Si5574   Si       0.97973    0.25109    0.62596    1.000
    N5575    N        0.98559    0.05742    0.52855    1.000
    N5576    N        0.94800    0.15654    0.58593    1.000
    N5577    N        0.96622    0.22638    0.59174    1.000
    Si5578   Si       0.96500    0.20439    0.50716    1.000
    Si5579   Si       0.97869    0.18631    0.57779    1.000
    N5580    N        0.93435    0.22702    0.52810    1.000
    N5581    N        0.96539    0.19202    0.72587    1.000
    N5582    N        0.98821    0.17802    0.53376    1.000
    Si5583   Si       0.93224    0.24408    0.57070    1.000
    Si5584   Si       0.97714    0.06370    0.72012    1.000
    N5585    N        0.96662    0.02147    0.72293    1.000
    N5586    N        0.96463    0.10010    0.63533    1.000
    N5587    N        0.94266    0.07997    0.70206    1.000
    Si5588   Si       0.93433    0.11582    0.72709    1.000
    Si5589   Si       0.93481    0.07727    0.65815    1.000
    N5590    N        0.97514    0.12958    0.73800    1.000
    N5591    N        0.93400    0.03583    0.63644    1.000
    N5592    N        0.94501    0.25548    0.71102    1.000
    Si5593   Si       0.96905    0.23348    0.73705    1.000
    Si5594   Si       0.96400    0.10196    0.83798    1.000
    Si5595   Si       0.94469    0.02448    0.82967    1.000
    N5596    N        0.94120    0.06689    0.81970    1.000
    N5597    N        0.93222    0.12966    0.84571    1.000
    N5598    N        0.98620    0.01646    0.82248    1.000
    Si5599   Si       0.97152    0.22004    0.81925    1.000
    N5600    N        0.96118    0.23881    0.77997    1.000
    N5601    N        0.97227    0.25235    0.84860    1.000
    N5602    N        0.98233    0.17914    0.83556    1.000
    Si5603   Si       0.94012    0.17202    0.84877    1.000
    N5604    N        0.94469    0.02360    0.87440    1.000
    N5605    N        0.97899    0.08515    0.87550    1.000
    N5606    N        0.96593    0.06258    0.93746    1.000
    Si5607   Si       0.94918    0.05983    0.89722    1.000
    Si5608   Si       0.98048    0.01712    0.94757    1.000
    N5609    N        0.98130    0.10890    0.99074    1.000
    N5610    N        0.97446    0.02722    0.99148    1.000
    N5611    N        0.97238    0.23343    0.91269    1.000
    N5612    N        0.96719    0.16776    0.95464    1.000
    Si5613   Si       0.95160    0.19788    0.92794    1.000
    N5614    N        0.93287    0.18300    0.88940    1.000
    Si5615   Si       0.95111    0.13914    0.98333    1.000
    Si5616   Si       0.92534    0.07497    0.95130    1.000
    N5617    N        0.94417    0.34003    0.07210    1.000
    N5618    N        0.94954    0.27037    0.06147    1.000
    Si5619   Si       0.94928    0.36513    0.10831    1.000
    N5620    N        0.93835    0.31075    0.01064    1.000
    Si5621   Si       0.97287    0.30558    0.07443    1.000
    Si5622   Si       0.97866    0.33266    0.00745    1.000
    Si5623   Si       0.95097    0.26528    0.01774    1.000
    N5624    N        0.96792    0.37253    0.99966    1.000
    N5625    N        0.97069    0.49334    0.02381    1.000
    N5626    N        0.95282    0.40856    0.10201    1.000
    Si5627   Si       0.92869    0.47126    0.01043    1.000
    Si5628   Si       0.98838    0.42602    0.07906    1.000
    N5629    N        0.95645    0.35514    0.20254    1.000
    Si5630   Si       0.95283    0.26399    0.16495    1.000
    N5631    N        0.95498    0.29507    0.23633    1.000
    Si5632   Si       0.93354    0.31901    0.20628    1.000
    N5633    N        0.94488    0.46481    0.14970    1.000
    N5634    N        0.96909    0.47261    0.21709    1.000
    Si5635   Si       0.98312    0.38618    0.20612    1.000
    Si5636   Si       0.97966    0.46154    0.17554    1.000
    N5637    N        0.92811    0.29864    0.16750    1.000
    N5638    N        0.97449    0.40626    0.24405    1.000
    N5639    N        0.94859    0.28405    0.30693    1.000
    Si5640   Si       0.95647    0.31429    0.27770    1.000
    Si5641   Si       0.95652    0.27936    0.34807    1.000
    Si5642   Si       0.92982    0.49251    0.44813    1.000
    N5643    N        0.94655    0.36588    0.36750    1.000
    N5644    N        0.98714    0.34366    0.28492    1.000
    Si5645   Si       0.97731    0.38705    0.28272    1.000
    N5646    N        0.94217    0.39570    0.30810    1.000
    Si5647   Si       0.96429    0.39843    0.34552    1.000
    Si5648   Si       0.97073    0.45032    0.25401    1.000
    N5649    N        0.93188    0.46085    0.27140    1.000
    N5650    N        0.93538    0.45277    0.42954    1.000
    N5651    N        0.96492    0.26845    0.42753    1.000
    N5652    N        0.97724    0.33154    0.42342    1.000
    N5653    N        0.95371    0.30200    0.48610    1.000
    Si5654   Si       0.95735    0.32663    0.38460    1.000
    Si5655   Si       0.98076    0.30137    0.45327    1.000
    Si5656   Si       0.98743    0.37180    0.43628    1.000
    N5657    N        0.92932    0.29392    0.37714    1.000
    N5658    N        0.96358    0.43191    0.37262    1.000
    N5659    N        0.93643    0.38565    0.43225    1.000
    N5660    N        0.98429    0.41446    0.45529    1.000
    Si5661   Si       0.98284    0.43106    0.41281    1.000
    Si5662   Si       0.93447    0.41787    0.46128    1.000
    N5663    N        0.95212    0.49967    0.48374    1.000
    N5664    N        0.96208    0.28196    0.55207    1.000
    Si5665   Si       0.95623    0.26736    0.51318    1.000
    N5666    N        0.96722    0.34298    0.57147    1.000
    Si5667   Si       0.94390    0.37434    0.59239    1.000
    Si5668   Si       0.94949    0.39826    0.52914    1.000
    Si5669   Si       0.96371    0.46906    0.51317    1.000
    N5670    N        0.93982    0.47964    0.54900    1.000
    N5671    N        0.93835    0.41089    0.56863    1.000
    N5672    N        0.94418    0.43215    0.50288    1.000
    N5673    N        0.95070    0.27534    0.64695    1.000
    N5674    N        0.97000    0.31952    0.70850    1.000
    Si5675   Si       0.96844    0.28052    0.68662    1.000
    Si5676   Si       0.94485    0.34247    0.73546    1.000
    N5677    N        0.95113    0.37774    0.63402    1.000
    Si5678   Si       0.97548    0.49116    0.74059    1.000
    N5679    N        0.96293    0.46642    0.66138    1.000
    N5680    N        0.93642    0.47023    0.72853    1.000
    Si5681   Si       0.95507    0.50426    0.64069    1.000
    Si5682   Si       0.96176    0.33015    0.85208    1.000
    Si5683   Si       0.94703    0.28579    0.79773    1.000
    N5684    N        0.96438    0.37278    0.75764    1.000
    N5685    N        0.93293    0.31182    0.76362    1.000
    N5686    N        0.95457    0.47295    0.85338    1.000
    N5687    N        0.96037    0.44114    0.78672    1.000
    Si5688   Si       0.94144    0.40246    0.78011    1.000
    Si5689   Si       0.95093    0.47612    0.81100    1.000
    Si5690   Si       0.96201    0.39633    0.88647    1.000
    N5691    N        0.97001    0.50755    0.78310    1.000
    N5692    N        0.93914    0.36115    0.87680    1.000
    N5693    N        0.95794    0.30215    0.88902    1.000
    N5694    N        0.95359    0.27117    0.96749    1.000
    Si5695   Si       0.94844    0.37301    0.96041    1.000
    Si5696   Si       0.95175    0.26049    0.88490    1.000
    N5697    N        0.93135    0.33462    0.94596    1.000
    N5698    N        0.97059    0.38958    0.92724    1.000
    N5699    N        0.98415    0.43445    0.97260    1.000
    N5700    N        0.92957    0.42898    0.89932    1.000
    N5701    N        0.97995    0.46700    0.91779    1.000
    N5702    N        0.93085    0.46659    0.96621    1.000
    Si5703   Si       0.94970    0.43517    0.93987    1.000
    N5704    N        0.92879    0.30958    0.83080    1.000
    Si5705   Si       0.94360    0.53137    0.03476    1.000
    N5706    N        0.97087    0.55493    0.06387    1.000
    Si5707   Si       0.94249    0.56356    0.10005    1.000
    N5708    N        0.96951    0.55339    0.00165    1.000
    Si5709   Si       0.95944    0.64826    0.01998    1.000
    Si5710   Si       0.95544    0.72239    0.05395    1.000
    N5711    N        0.96974    0.68110    0.04780    1.000
    N5712    N        0.96942    0.72130    0.09553    1.000
    Si5713   Si       0.97670    0.67778    0.09043    1.000
    N5714    N        0.93757    0.66347    0.10567    1.000
    N5715    N        0.97591    0.56701    0.12638    1.000
    Si5716   Si       0.95629    0.51592    0.21994    1.000
    N5717    N        0.95253    0.52850    0.18005    1.000
    Si5718   Si       0.97520    0.56522    0.17013    1.000
    N5719    N        0.95659    0.59881    0.19236    1.000
    Si5720   Si       0.98127    0.69783    0.19442    1.000
    Si5721   Si       0.96511    0.72868    0.13679    1.000
    N5722    N        0.96396    0.73669    0.21119    1.000
    N5723    N        0.96488    0.66360    0.21649    1.000
    N5724    N        0.93027    0.71602    0.15994    1.000
    Si5725   Si       0.98902    0.62879    0.20092    1.000
    Si5726   Si       0.95733    0.61688    0.31230    1.000
    N5727    N        0.97139    0.62517    0.35362    1.000
    N5728    N        0.95364    0.52297    0.30064    1.000
    Si5729   Si       0.94433    0.51907    0.34322    1.000
    N5730    N        0.98259    0.51447    0.36200    1.000
    N5731    N        0.94488    0.64531    0.47465    1.000
    Si5732   Si       0.93228    0.74721    0.35460    1.000
    N5733    N        0.96252    0.64974    0.28402    1.000
    Si5734   Si       0.95093    0.69249    0.30157    1.000
    N5735    N        0.97756    0.71150    0.27132    1.000
    Si5736   Si       0.98002    0.74709    0.24907    1.000
    N5737    N        0.98145    0.69080    0.33368    1.000
    Si5738   Si       0.93521    0.65722    0.24864    1.000
    Si5739   Si       0.98223    0.66690    0.37057    1.000
    N5740    N        0.94366    0.52037    0.42014    1.000
    Si5741   Si       0.94290    0.62094    0.38806    1.000
    N5742    N        0.95670    0.58624    0.41012    1.000
    N5743    N        0.97903    0.56913    0.47729    1.000
    Si5744   Si       0.98291    0.51164    0.40576    1.000
    Si5745   Si       0.95747    0.73194    0.42627    1.000
    Si5746   Si       0.97702    0.65134    0.44581    1.000
    N5747    N        0.95741    0.65843    0.40591    1.000
    N5748    N        0.94017    0.72180    0.46456    1.000
    N5749    N        0.92626    0.73280    0.39705    1.000
    Si5750   Si       0.95172    0.52092    0.56614    1.000
    N5751    N        0.97656    0.54082    0.53586    1.000
    N5752    N        0.96735    0.62309    0.54001    1.000
    Si5753   Si       0.95245    0.54139    0.49851    1.000
    N5754    N        0.97423    0.51068    0.60135    1.000
    N5755    N        0.94617    0.69047    0.52392    1.000
    Si5756   Si       0.94424    0.69954    0.56613    1.000
    Si5757   Si       0.96008    0.72531    0.50271    1.000
    Si5758   Si       0.94053    0.64711    0.51868    1.000
    N5759    N        0.98428    0.70077    0.58060    1.000
    N5760    N        0.93315    0.58335    0.63308    1.000
    N5761    N        0.97324    0.58888    0.68902    1.000
    N5762    N        0.97685    0.53260    0.66342    1.000
    Si5763   Si       0.96497    0.54949    0.70454    1.000
    Si5764   Si       0.97373    0.57572    0.64713    1.000
    N5765    N        0.93437    0.54746    0.73625    1.000
    Si5766   Si       0.97469    0.63009    0.69964    1.000
    N5767    N        0.96628    0.63083    0.74161    1.000
    Si5768   Si       0.98540    0.72420    0.61765    1.000
    Si5769   Si       0.94047    0.68832    0.67995    1.000
    N5770    N        0.94351    0.64661    0.67415    1.000
    Si5771   Si       0.93327    0.73377    0.74368    1.000
    N5772    N        0.95167    0.70907    0.64122    1.000
    N5773    N        0.95465    0.69812    0.72309    1.000
    N5774    N        0.97119    0.57909    0.79048    1.000
    Si5775   Si       0.94261    0.58032    0.82474    1.000
    Si5776   Si       0.94801    0.54298    0.77581    1.000
    N5777    N        0.95316    0.56927    0.86440    1.000
    Si5778   Si       0.94945    0.66881    0.75562    1.000
    N5779    N        0.96910    0.66626    0.79479    1.000
    Si5780   Si       0.94729    0.65545    0.83181    1.000
    N5781    N        0.96349    0.72057    0.84080    1.000
    N5782    N        0.93929    0.73677    0.78644    1.000
    N5783    N        0.97295    0.66042    0.86757    1.000
    Si5784   Si       0.93325    0.57956    0.90191    1.000
    Si5785   Si       0.96819    0.51260    0.92219    1.000
    N5786    N        0.94833    0.61812    0.91598    1.000
    Si5787   Si       0.94080    0.56095    0.97089    1.000
    N5788    N        0.95412    0.55333    0.93124    1.000
    Si5789   Si       0.98436    0.63373    0.89866    1.000
    N5790    N        0.95346    0.65703    0.97610    1.000
    N5791    N        0.97431    0.71826    0.95121    1.000
    Si5792   Si       0.93496    0.73327    0.95192    1.000
    N5793    N        0.94825    0.86947    0.08488    1.000
    N5794    N        0.93891    0.82429    0.01620    1.000
    Si5795   Si       0.93499    0.77982    0.02026    1.000
    N5796    N        0.96862    0.75835    0.03620    1.000
    Si5797   Si       0.98997    0.86991    0.07037    1.000
    N5798    N        0.94609    0.94569    0.04759    1.000
    N5799    N        0.94238    0.99329    0.10811    1.000
    N5800    N        0.96651    0.89053    0.19635    1.000
    Si5801   Si       0.98296    0.97006    0.11829    1.000
    Si5802   Si       0.98636    0.85315    0.21311    1.000
    N5803    N        0.97420    0.81067    0.21049    1.000
    N5804    N        0.96500    0.83063    0.14354    1.000
    Si5805   Si       0.96299    0.79647    0.17136    1.000
    N5806    N        0.98371    0.76544    0.14889    1.000
    Si5807   Si       0.93315    0.85031    0.12317    1.000
    N5808    N        0.95762    0.93226    0.13069    1.000
    Si5809   Si       0.94305    0.91200    0.22665    1.000
    Si5810   Si       0.95167    0.97880    0.19255    1.000
    Si5811   Si       0.98208    0.91334    0.16165    1.000
    N5812    N        0.97237    0.00256    0.22243    1.000
    N5813    N        0.96669    0.78057    0.27635    1.000
    N5814    N        0.96825    0.77052    0.35427    1.000
    N5815    N        0.96989    0.85258    0.25494    1.000
    N5816    N        0.94222    0.85274    0.36410    1.000
    Si5817   Si       0.95530    0.81178    0.24951    1.000
    Si5818   Si       0.98590    0.78359    0.31669    1.000
    Si5819   Si       0.98567    0.85602    0.35165    1.000
    Si5820   Si       0.98070    0.88342    0.28185    1.000
    N5821    N        0.96530    0.96025    0.32752    1.000
    N5822    N        0.95430    0.91550    0.26978    1.000
    Si5823   Si       0.93743    0.93249    0.30558    1.000
    Si5824   Si       0.97778    0.99909    0.31237    1.000
    N5825    N        0.97569    0.89203    0.32380    1.000
    N5826    N        0.93617    0.82985    0.43666    1.000
    Si5827   Si       0.96832    0.80821    0.45418    1.000
    N5828    N        0.96813    0.77488    0.42837    1.000
    Si5829   Si       0.95639    0.85106    0.40493    1.000
    Si5830   Si       0.97465    0.96637    0.49260    1.000
    N5831    N        0.96460    0.88855    0.42235    1.000
    Si5832   Si       0.95320    0.89696    0.46354    1.000
    Si5833   Si       0.95736    0.97013    0.37237    1.000
    N5834    N        0.98965    0.94380    0.38151    1.000
    N5835    N        0.95364    0.94120    0.46575    1.000
    N5836    N        0.96986    0.81722    0.49675    1.000
    Si5837   Si       0.96506    0.86737    0.57024    1.000
    N5838    N        0.96639    0.82481    0.56973    1.000
    Si5839   Si       0.96838    0.79629    0.53395    1.000
    N5840    N        0.97213    0.76472    0.61400    1.000
    N5841    N        0.94459    0.76035    0.52513    1.000
    Si5842   Si       0.99063    0.77044    0.70516    1.000
    N5843    N        0.94651    0.88833    0.60978    1.000
    N5844    N        0.97094    0.97536    0.53437    1.000
    Si5845   Si       0.94123    0.97919    0.56567    1.000
    N5846    N        0.96132    0.97539    0.60382    1.000
    N5847    N        0.93604    0.89084    0.54952    1.000
    Si5848   Si       0.94178    0.85694    0.64276    1.000
    N5849    N        0.95330    0.77004    0.72705    1.000
    N5850    N        0.95042    0.84480    0.72536    1.000
    Si5851   Si       0.94832    0.78200    0.64532    1.000
    N5852    N        0.98010    0.79497    0.67123    1.000
    N5853    N        0.98613    0.85978    0.64998    1.000
    Si5854   Si       0.93216    0.80605    0.73277    1.000
    N5855    N        0.93503    0.91729    0.71527    1.000
    Si5856   Si       0.98780    0.89262    0.62431    1.000
    N5857    N        0.92984    0.97484    0.67391    1.000
    Si5858   Si       0.94824    0.95772    0.70909    1.000
    Si5859   Si       0.96215    0.88483    0.72824    1.000
    Si5860   Si       0.95062    0.99582    0.64165    1.000
    N5861    N        0.93157    0.97125    0.74611    1.000
    N5862    N        0.95683    0.79197    0.82621    1.000
    Si5863   Si       0.97260    0.87620    0.81039    1.000
    N5864    N        0.93246    0.85817    0.81615    1.000
    Si5865   Si       0.97139    0.75397    0.81083    1.000
    N5866    N        0.98018    0.96249    0.86409    1.000
    N5867    N        0.97542    0.89388    0.77033    1.000
    N5868    N        0.98210    0.90083    0.84552    1.000
    Si5869   Si       0.94889    0.92576    0.87049    1.000
    N5870    N        0.92827    0.93228    0.96402    1.000
    N5871    N        0.94917    0.81895    0.94335    1.000
    N5872    N        0.96698    0.87780    0.96980    1.000
    N5873    N        0.98236    0.83613    0.87833    1.000
    Si5874   Si       0.98420    0.81510    0.91556    1.000
    Si5875   Si       0.96948    0.83514    0.98621    1.000
    Si5876   Si       0.93618    0.89445    0.94341    1.000
    N5877    N        0.94497    0.99491    0.93823    1.000
    N5878    N        0.95255    0.90018    0.90481    1.000
    Si5879   Si       0.95571    0.98713    0.89632    1.000
