# CIF file generated by openbabel 3.1.1, see https://openbabel.org
data_I
_chemical_name_common '3.01-52.aims'
_cell_length_a 39.8511
_cell_length_b 39.8511
_cell_length_c 39.8511
_cell_angle_alpha 90
_cell_angle_beta 90
_cell_angle_gamma 90
loop_
    _atom_site_label
    _atom_site_type_symbol
    _atom_site_fract_x
    _atom_site_fract_y
    _atom_site_fract_z
    _atom_site_occupancy
    Si0      Si       0.07202    0.03587    0.05752    1.000
    N1       N        0.00028    0.05412    0.06127    1.000
    N2       N        0.05997    0.01711    0.02030    1.000
    N3       N        0.06892    0.01507    0.09545    1.000
    N4       N        0.99175    0.01447    0.00430    1.000
    Si5      Si       0.02498    0.04021    0.99886    1.000
    N6       N        0.11406    0.04458    0.05260    1.000
    Si7      Si       0.18660    0.06138    0.06914    1.000
    Si8      Si       0.14138    0.02092    0.02590    1.000
    N9       N        0.18248    0.02180    0.04737    1.000
    N10      N        0.18257    0.06391    0.11175    1.000
    Si11     Si       0.99643    0.03454    0.15611    1.000
    N12      N        0.10345    0.05403    0.22839    1.000
    Si13     Si       0.06529    0.02415    0.13821    1.000
    N14      N        0.07282    0.06170    0.16008    1.000
    N15      N        0.14190    0.06450    0.16923    1.000
    Si16     Si       0.24033    0.02694    0.19183    1.000
    N17      N        0.17363    0.03378    0.22668    1.000
    N18      N        0.22715    0.01433    0.12814    1.000
    N19      N        0.21325    0.05536    0.17705    1.000
    Si20     Si       0.21818    0.05701    0.13301    1.000
    Si21     Si       0.17586    0.06557    0.19701    1.000
    Si22     Si       0.13128    0.02225    0.23288    1.000
    Si23     Si       0.05703    0.04670    0.33020    1.000
    N24      N        0.09323    0.05508    0.30202    1.000
    N25      N        0.02132    0.04653    0.30724    1.000
    Si26     Si       0.01811    0.04414    0.26280    1.000
    N27      N        0.06232    0.02628    0.36900    1.000
    Si28     Si       0.11479    0.01557    0.30522    1.000
    N29      N        0.04287    0.00990    0.25248    1.000
    N30      N        0.20056    0.04294    0.29207    1.000
    N31      N        0.20290    0.04592    0.36378    1.000
    Si32     Si       0.19196    0.01937    0.33077    1.000
    Si33     Si       0.20589    0.02382    0.25453    1.000
    N34      N        0.14821    0.01012    0.33536    1.000
    Si35     Si       0.09888    0.05842    0.46915    1.000
    N36      N        0.08951    0.03004    0.43669    1.000
    Si37     Si       0.05292    0.03164    0.41101    1.000
    N38      N        0.99102    0.03928    0.45986    1.000
    Si39     Si       0.17223    0.05417    0.39387    1.000
    Si40     Si       0.19154    0.03368    0.46416    1.000
    N41      N        0.19547    0.06348    0.43332    1.000
    N42      N        0.15244    0.01749    0.40167    1.000
    N43      N        0.15479    0.01588    0.47046    1.000
    Si44     Si       0.06246    0.02332    0.53050    1.000
    N45      N        0.07476    0.03094    0.57268    1.000
    N46      N        0.03460    0.05367    0.51590    1.000
    N47      N        0.09684    0.03388    0.50459    1.000
    Si48     Si       0.99536    0.03838    0.50310    1.000
    Si49     Si       0.01745    0.05957    0.61986    1.000
    N50      N        0.15952    0.03408    0.54017    1.000
    Si51     Si       0.20283    0.03005    0.53477    1.000
    N52      N        0.22066    0.04517    0.57381    1.000
    Si53     Si       0.18942    0.04683    0.60559    1.000
    Si54     Si       0.13489    0.01341    0.51029    1.000
    N55      N        0.20895    0.05415    0.49819    1.000
    N56      N        0.03819    0.02040    0.62904    1.000
    Si57     Si       0.07940    0.04159    0.72954    1.000
    N58      N        0.06975    0.04322    0.68768    1.000
    N59      N        0.13710    0.05522    0.66409    1.000
    Si60     Si       0.13989    0.01349    0.65316    1.000
    Si61     Si       0.21920    0.06206    0.72458    1.000
    N62      N        0.17957    0.04728    0.71951    1.000
    N63      N        0.11834    0.06194    0.73690    1.000
    Si64     Si       0.01513    0.02622    0.76132    1.000
    N65      N        0.10714    0.04024    0.79657    1.000
    N66      N        0.04528    0.05640    0.75463    1.000
    N67      N        0.11288    0.05910    0.86338    1.000
    Si68     Si       0.07616    0.00816    0.80442    1.000
    N69      N        0.07183    0.01037    0.84704    1.000
    N70      N        0.23691    0.06273    0.76426    1.000
    Si71     Si       0.21340    0.05570    0.80006    1.000
    Si72     Si       0.14207    0.04232    0.77101    1.000
    N73      N        0.22322    0.01747    0.82137    1.000
    N74      N        0.17246    0.06834    0.79046    1.000
    Si75     Si       0.08016    0.03412    0.88345    1.000
    N76      N        0.03298    0.03891    0.95633    1.000
    N77      N        0.10217    0.04144    0.92202    1.000
    Si78     Si       0.09923    0.04354    0.96774    1.000
    N79      N        0.04841    0.06351    0.88861    1.000
    Si80     Si       0.17169    0.05973    0.96375    1.000
    N81      N        0.19827    0.03209    0.94226    1.000
    Si82     Si       0.14076    0.05077    0.89576    1.000
    N83      N        0.13936    0.04178    0.98670    1.000
    N84      N        0.18238    0.05785    0.87696    1.000
    Si85     Si       0.20843    0.03085    0.89934    1.000
    Si86     Si       0.02369    0.09377    0.05181    1.000
    N87      N        0.06394    0.07729    0.05852    1.000
    N88      N        0.99727    0.11187    0.08573    1.000
    N89      N        0.01548    0.08348    0.00355    1.000
    N90      N        0.11062    0.12182    0.03137    1.000
    Si91     Si       0.11232    0.08743    0.06150    1.000
    N92      N        0.11541    0.10214    0.10258    1.000
    N93      N        0.15747    0.08857    0.05421    1.000
    Si94     Si       0.15422    0.11268    0.02030    1.000
    Si95     Si       0.22830    0.07862    0.01665    1.000
    N96      N        0.22576    0.07387    0.05851    1.000
    N97      N        0.05178    0.12363    0.12290    1.000
    Si98     Si       0.01710    0.11266    0.22731    1.000
    N99      N        0.04238    0.11675    0.19127    1.000
    N100     N        0.10815    0.11450    0.20074    1.000
    Si101    Si       0.04237    0.09328    0.15440    1.000
    Si102    Si       0.10348    0.07265    0.18804    1.000
    N103     N        0.01076    0.07115    0.13527    1.000
    Si104    Si       0.19804    0.12300    0.24447    1.000
    Si105    Si       0.14871    0.08510    0.13077    1.000
    N106     N        0.17350    0.10474    0.21478    1.000
    N107     N        0.16191    0.12364    0.14735    1.000
    N108     N        0.05888    0.08958    0.34567    1.000
    Si109    Si       0.01975    0.11060    0.34489    1.000
    N110     N        0.09016    0.11185    0.27619    1.000
    Si111    Si       0.09406    0.09663    0.31826    1.000
    Si112    Si       0.07955    0.07361    0.25954    1.000
    N113     N        0.03800    0.07889    0.24874    1.000
    Si114    Si       0.21024    0.08446    0.29157    1.000
    N115     N        0.22872    0.10187    0.32760    1.000
    N116     N        0.17904    0.11643    0.28406    1.000
    N117     N        0.12890    0.11323    0.33885    1.000
    N118     N        0.23240    0.09696    0.25624    1.000
    Si119    Si       0.23858    0.07415    0.35892    1.000
    N120     N        0.00705    0.10655    0.47323    1.000
    N121     N        0.07320    0.09419    0.47009    1.000
    Si122    Si       0.05445    0.09888    0.38976    1.000
    Si123    Si       0.00150    0.07902    0.44260    1.000
    N124     N        0.08800    0.11898    0.40644    1.000
    N125     N        0.03087    0.07021    0.41199    1.000
    Si126    Si       0.09105    0.12822    0.44965    1.000
    N127     N        0.18769    0.11978    0.47342    1.000
    Si128    Si       0.22031    0.09432    0.49045    1.000
    Si129    Si       0.12555    0.12261    0.38215    1.000
    Si130    Si       0.14805    0.11424    0.49618    1.000
    Si131    Si       0.16142    0.10471    0.44016    1.000
    N132     N        0.13703    0.08078    0.46825    1.000
    N133     N        0.15093    0.09290    0.39879    1.000
    Si134    Si       0.23734    0.07162    0.42583    1.000
    N135     N        0.10258    0.08867    0.55379    1.000
    N136     N        0.03012    0.08050    0.58483    1.000
    Si137    Si       0.02863    0.12018    0.56902    1.000
    N138     N        0.03303    0.12472    0.52746    1.000
    Si139    Si       0.07372    0.07327    0.58343    1.000
    Si140    Si       0.04160    0.09231    0.49914    1.000
    N141     N        0.15497    0.07262    0.59657    1.000
    N142     N        0.16496    0.10444    0.53484    1.000
    Si143    Si       0.14293    0.07332    0.55282    1.000
    N144     N        0.23471    0.11460    0.52740    1.000
    N145     N        0.01939    0.12061    0.71311    1.000
    N146     N        0.08810    0.07711    0.62351    1.000
    Si147    Si       0.07170    0.08096    0.66399    1.000
    N148     N        0.02945    0.08978    0.65125    1.000
    N149     N        0.08586    0.11163    0.69076    1.000
    Si150    Si       0.01102    0.12223    0.67116    1.000
    Si151    Si       0.23461    0.10245    0.63020    1.000
    Si152    Si       0.14621    0.06990    0.70435    1.000
    N153     N        0.15690    0.11199    0.70002    1.000
    N154     N        0.22422    0.10112    0.70807    1.000
    Si155    Si       0.13149    0.08386    0.63228    1.000
    N156     N        0.21087    0.06757    0.63704    1.000
    Si157    Si       0.04366    0.08941    0.78205    1.000
    Si158    Si       0.04302    0.09356    0.85691    1.000
    N159     N        0.00318    0.10347    0.77847    1.000
    N160     N        0.06266    0.08559    0.82024    1.000
    N161     N        0.00080    0.10092    0.84615    1.000
    Si162    Si       0.10349    0.07321    0.82346    1.000
    N163     N        0.06683    0.12257    0.76453    1.000
    N164     N        0.12088    0.10998    0.80750    1.000
    Si165    Si       0.16337    0.11014    0.80860    1.000
    N166     N        0.23365    0.07767    0.83573    1.000
    N167     N        0.17733    0.12069    0.85014    1.000
    Si168    Si       0.20706    0.09108    0.86804    1.000
    Si169    Si       0.04822    0.10844    0.98408    1.000
    N170     N        0.03266    0.10920    0.94162    1.000
    N171     N        0.08393    0.08343    0.98083    1.000
    Si172    Si       0.10306    0.12272    0.97420    1.000
    Si173    Si       0.02717    0.06875    0.92670    1.000
    N174     N        0.19135    0.08433    0.99458    1.000
    N175     N        0.23526    0.10387    0.90220    1.000
    N176     N        0.15190    0.07853    0.92844    1.000
    Si177    Si       0.14734    0.11955    0.93271    1.000
    N178     N        0.14724    0.12691    0.97625    1.000
    N179     N        0.08658    0.16499    0.08032    1.000
    Si180    Si       0.01749    0.14406    0.10709    1.000
    Si181    Si       0.07818    0.15077    0.03315    1.000
    N182     N        0.03462    0.13558    0.03698    1.000
    Si183    Si       0.09122    0.13904    0.11423    1.000
    Si184    Si       0.01650    0.17749    0.03533    1.000
    N185     N        0.01896    0.18054    0.08206    1.000
    N186     N        0.20585    0.15498    0.09338    1.000
    N187     N        0.18084    0.14593    0.02635    1.000
    Si188    Si       0.19938    0.17227    0.05436    1.000
    N189     N        0.08685    0.17230    0.22829    1.000
    N190     N        0.09764    0.15790    0.15382    1.000
    Si191    Si       0.07730    0.14735    0.19384    1.000
    N192     N        0.99266    0.15416    0.14066    1.000
    N193     N        0.03688    0.18776    0.18022    1.000
    Si194    Si       0.99283    0.18936    0.16616    1.000
    N195     N        0.02446    0.15089    0.24560    1.000
    N196     N        0.21466    0.16520    0.16463    1.000
    Si197    Si       0.18807    0.15655    0.13205    1.000
    Si198    Si       0.14677    0.12853    0.19036    1.000
    Si199    Si       0.19382    0.18415    0.19798    1.000
    N200     N        0.15083    0.17222    0.19425    1.000
    N201     N        0.20090    0.16373    0.23466    1.000
    Si202    Si       0.09236    0.15460    0.26983    1.000
    Si203    Si       0.01959    0.16449    0.28670    1.000
    N204     N        0.06279    0.17500    0.29533    1.000
    N205     N        0.00196    0.13331    0.31097    1.000
    N206     N        0.23655    0.16428    0.29354    1.000
    Si207    Si       0.15475    0.13748    0.31330    1.000
    N208     N        0.12951    0.16574    0.28961    1.000
    N209     N        0.18478    0.15449    0.34110    1.000
    Si210    Si       0.22531    0.14650    0.33099    1.000
    Si211    Si       0.03553    0.17509    0.38235    1.000
    N212     N        0.07035    0.16308    0.46566    1.000
    N213     N        0.00055    0.18045    0.48607    1.000
    N214     N        0.02135    0.13272    0.38335    1.000
    Si215    Si       0.13888    0.18212    0.45517    1.000
    N216     N        0.23846    0.16755    0.48094    1.000
    N217     N        0.13419    0.14034    0.44824    1.000
    Si218    Si       0.20300    0.15963    0.45738    1.000
    N219     N        0.20501    0.15228    0.41408    1.000
    N220     N        0.13959    0.16532    0.38374    1.000
    Si221    Si       0.18219    0.17013    0.38179    1.000
    N222     N        0.06764    0.13363    0.58392    1.000
    Si223    Si       0.09109    0.17863    0.50165    1.000
    Si224    Si       0.06707    0.17762    0.58399    1.000
    N225     N        0.11321    0.13607    0.50894    1.000
    N226     N        0.99484    0.14311    0.59043    1.000
    Si227    Si       0.09958    0.13497    0.55114    1.000
    Si228    Si       0.00049    0.13993    0.50015    1.000
    Si229    Si       0.00387    0.17331    0.62107    1.000
    N230     N        0.07972    0.17867    0.54337    1.000
    Si231    Si       0.17003    0.14388    0.55219    1.000
    N232     N        0.20146    0.14669    0.58409    1.000
    N233     N        0.13387    0.14870    0.57403    1.000
    N234     N        0.18695    0.17474    0.52589    1.000
    Si235    Si       0.12861    0.16409    0.61520    1.000
    Si236    Si       0.19979    0.16915    0.62176    1.000
    N237     N        0.02567    0.16129    0.65679    1.000
    N238     N        0.06173    0.17518    0.71698    1.000
    Si239    Si       0.06082    0.13220    0.72222    1.000
    N240     N        0.12965    0.12711    0.64091    1.000
    N241     N        0.12713    0.17339    0.69714    1.000
    N242     N        0.21125    0.13712    0.64764    1.000
    Si243    Si       0.23786    0.18142    0.71343    1.000
    N244     N        0.19778    0.16430    0.70621    1.000
    Si245    Si       0.12273    0.13391    0.68174    1.000
    Si246    Si       0.19591    0.12606    0.68658    1.000
    Si247    Si       0.09264    0.14211    0.79447    1.000
    N248     N        0.00984    0.16523    0.81429    1.000
    Si249    Si       0.03999    0.16818    0.84628    1.000
    N250     N        0.07973    0.17147    0.82510    1.000
    N251     N        0.11303    0.16832    0.76686    1.000
    N252     N        0.17502    0.14408    0.78390    1.000
    Si253    Si       0.21647    0.15555    0.78588    1.000
    Si254    Si       0.15563    0.18485    0.77993    1.000
    N255     N        0.04712    0.13422    0.87297    1.000
    Si256    Si       0.03323    0.14277    0.91374    1.000
    Si257    Si       0.09765    0.17053    0.91410    1.000
    N258     N        0.05594    0.17626    0.92653    1.000
    N259     N        0.07048    0.14704    0.98654    1.000
    Si260    Si       0.05095    0.18399    0.97046    1.000
    N261     N        0.10546    0.13019    0.93101    1.000
    N262     N        0.01216    0.18393    0.98784    1.000
    Si263    Si       0.18400    0.15006    0.98383    1.000
    Si264    Si       0.16545    0.15538    0.87545    1.000
    N265     N        0.17852    0.14215    0.91441    1.000
    N266     N        0.22560    0.15135    0.96471    1.000
    N267     N        0.12443    0.16863    0.87769    1.000
    Si268    Si       0.22208    0.13962    0.92229    1.000
    Si269    Si       0.08189    0.23182    0.01882    1.000
    Si270    Si       0.06651    0.20215    0.07584    1.000
    Si271    Si       0.00887    0.21680    0.10455    1.000
    N272     N        0.05373    0.21992    0.11488    1.000
    N273     N        0.09554    0.23612    0.06339    1.000
    N274     N        0.05785    0.19588    0.03323    1.000
    N275     N        0.00094    0.24719    0.07449    1.000
    Si276    Si       0.13925    0.23328    0.05262    1.000
    Si277    Si       0.17615    0.21949    0.10219    1.000
    N278     N        0.17354    0.20563    0.06039    1.000
    N279     N        0.12468    0.22056    0.00987    1.000
    N280     N        0.20114    0.24946    0.11965    1.000
    Si281    Si       0.09084    0.21586    0.22162    1.000
    N282     N        0.04876    0.22690    0.23439    1.000
    Si283    Si       0.05947    0.21802    0.15847    1.000
    N284     N        0.10080    0.21830    0.17616    1.000
    Si285    Si       0.02211    0.19168    0.22758    1.000
    Si286    Si       0.12831    0.18826    0.16010    1.000
    N287     N        0.20115    0.22602    0.20295    1.000
    N288     N        0.15978    0.19180    0.12961    1.000
    N289     N        0.00541    0.20437    0.27753    1.000
    Si290    Si       0.07285    0.20525    0.32606    1.000
    N291     N        0.00489    0.19513    0.35924    1.000
    Si292    Si       0.00355    0.23443    0.34548    1.000
    N293     N        0.04032    0.23866    0.32128    1.000
    N294     N        0.11058    0.22546    0.31637    1.000
    Si295    Si       0.03598    0.24050    0.27635    1.000
    N296     N        0.07397    0.18486    0.36527    1.000
    N297     N        0.17915    0.21220    0.27957    1.000
    Si298    Si       0.13617    0.20896    0.28580    1.000
    N299     N        0.23722    0.22101    0.25245    1.000
    N300     N        0.11588    0.22998    0.25236    1.000
    Si301    Si       0.21532    0.18826    0.26657    1.000
    Si302    Si       0.02563    0.24307    0.41432    1.000
    N303     N        0.07200    0.22195    0.48986    1.000
    N304     N        0.03445    0.19517    0.42022    1.000
    Si305    Si       0.06817    0.20469    0.44878    1.000
    N306     N        0.10917    0.20385    0.43182    1.000
    Si307    Si       0.10860    0.19418    0.38962    1.000
    Si308    Si       0.99692    0.19100    0.44273    1.000
    N309     N        0.13024    0.19758    0.49558    1.000
    Si310    Si       0.19480    0.22922    0.43071    1.000
    N311     N        0.12106    0.23555    0.38164    1.000
    N312     N        0.18048    0.19842    0.45956    1.000
    N313     N        0.23413    0.24136    0.44216    1.000
    N314     N        0.19072    0.21239    0.39007    1.000
    Si315    Si       0.16274    0.24071    0.37711    1.000
    Si316    Si       0.00506    0.22285    0.56698    1.000
    N317     N        0.02863    0.19539    0.59314    1.000
    N318     N        0.09452    0.19028    0.61516    1.000
    Si319    Si       0.11440    0.24141    0.50501    1.000
    N320     N        0.22268    0.22865    0.51426    1.000
    Si321    Si       0.17234    0.21104    0.50380    1.000
    Si322    Si       0.22933    0.18580    0.51951    1.000
    Si323    Si       0.00251    0.23591    0.73777    1.000
    N324     N        0.05662    0.22497    0.66276    1.000
    Si325    Si       0.08586    0.22978    0.63079    1.000
    N326     N        0.00047    0.21213    0.70114    1.000
    Si327    Si       0.03618    0.19174    0.68477    1.000
    Si328    Si       0.10062    0.18943    0.73068    1.000
    N329     N        0.09322    0.23163    0.74081    1.000
    N330     N        0.16272    0.18816    0.62807    1.000
    N331     N        0.22672    0.22228    0.72762    1.000
    N332     N        0.17724    0.22707    0.68439    1.000
    Si333    Si       0.22962    0.24395    0.62672    1.000
    Si334    Si       0.16106    0.22805    0.64505    1.000
    Si335    Si       0.16450    0.19248    0.70595    1.000
    N336     N        0.23191    0.19968    0.62815    1.000
    N337     N        0.15574    0.21130    0.74587    1.000
    N338     N        0.02521    0.22383    0.77341    1.000
    Si339    Si       0.11036    0.19637    0.84599    1.000
    Si340    Si       0.99682    0.20135    0.79557    1.000
    N341     N        0.02306    0.19970    0.87112    1.000
    Si342    Si       0.18264    0.21399    0.82965    1.000
    N343     N        0.20634    0.19782    0.79568    1.000
    N344     N        0.14324    0.20399    0.81865    1.000
    N345     N        0.19276    0.18881    0.86323    1.000
    Si346    Si       0.23772    0.21247    0.76805    1.000
    N347     N        0.08970    0.22658    0.87340    1.000
    Si348    Si       0.04817    0.23762    0.87477    1.000
    N349     N        0.06352    0.22487    0.97663    1.000
    Si350    Si       0.11493    0.23956    0.90898    1.000
    N351     N        0.12100    0.20402    0.93469    1.000
    N352     N        0.20359    0.22473    0.92540    1.000
    Si353    Si       0.22313    0.20865    0.88994    1.000
    Si354    Si       0.14271    0.21445    0.97026    1.000
    Si355    Si       0.22044    0.19543    0.95564    1.000
    N356     N        0.18040    0.19231    0.97566    1.000
    Si357    Si       0.01533    0.28514    0.08766    1.000
    Si358    Si       0.10262    0.27206    0.09479    1.000
    N359     N        0.05971    0.29312    0.09319    1.000
    N360     N        0.09287    0.27522    0.01216    1.000
    N361     N        0.16072    0.26624    0.03462    1.000
    N362     N        0.21756    0.29510    0.00974    1.000
    N363     N        0.14265    0.25179    0.09830    1.000
    Si364    Si       0.99384    0.29653    0.24001    1.000
    Si365    Si       0.99430    0.26381    0.16296    1.000
    N366     N        0.09801    0.28027    0.13986    1.000
    N367     N        0.04007    0.25578    0.16920    1.000
    N368     N        0.00927    0.29259    0.13118    1.000
    N369     N        0.09091    0.26881    0.21100    1.000
    Si370    Si       0.04627    0.26641    0.21166    1.000
    Si371    Si       0.05459    0.28997    0.13947    1.000
    Si372    Si       0.11249    0.26185    0.17453    1.000
    N373     N        0.18719    0.27746    0.24519    1.000
    N374     N        0.15554    0.26488    0.17191    1.000
    Si375    Si       0.18974    0.26759    0.19994    1.000
    N376     N        0.21485    0.29919    0.17949    1.000
    Si377    Si       0.16551    0.27266    0.12937    1.000
    N378     N        0.06630    0.27665    0.27799    1.000
    Si379    Si       0.05792    0.27896    0.32105    1.000
    N380     N        0.09298    0.29085    0.34311    1.000
    N381     N        0.99997    0.26744    0.27187    1.000
    Si382    Si       0.10595    0.27530    0.25385    1.000
    Si383    Si       0.12458    0.26622    0.32548    1.000
    N384     N        0.13519    0.28187    0.28619    1.000
    N385     N        0.16483    0.26527    0.34376    1.000
    N386     N        0.22441    0.26273    0.30537    1.000
    Si387    Si       0.20054    0.28587    0.33315    1.000
    Si388    Si       0.20416    0.24678    0.26926    1.000
    N389     N        0.21849    0.29597    0.37287    1.000
    N390     N        0.01019    0.25978    0.37862    1.000
    N391     N        0.04302    0.28511    0.47598    1.000
    Si392    Si       0.06904    0.29428    0.44105    1.000
    N393     N        0.06616    0.24869    0.42907    1.000
    N394     N        0.10984    0.29446    0.41331    1.000
    Si395    Si       0.11819    0.25052    0.42474    1.000
    Si396    Si       0.01547    0.30295    0.37578    1.000
    N397     N        0.11947    0.26506    0.46851    1.000
    N398     N        0.22551    0.29352    0.48472    1.000
    N399     N        0.16512    0.26087    0.41935    1.000
    N400     N        0.08826    0.26220    0.53522    1.000
    Si401    Si       0.09348    0.28144    0.57361    1.000
    N402     N        0.06905    0.26230    0.60447    1.000
    Si403    Si       0.02630    0.27425    0.61306    1.000
    Si404    Si       0.05233    0.25585    0.51128    1.000
    N405     N        0.01990    0.25368    0.53942    1.000
    Si406    Si       0.99373    0.28873    0.55468    1.000
    N407     N        0.99235    0.24899    0.59917    1.000
    N408     N        0.13878    0.28528    0.58080    1.000
    Si409    Si       0.15559    0.28537    0.54120    1.000
    Si410    Si       0.16434    0.29338    0.61630    1.000
    Si411    Si       0.22142    0.25944    0.55011    1.000
    N412     N        0.19648    0.29819    0.54882    1.000
    N413     N        0.15663    0.24790    0.52066    1.000
    N414     N        0.18660    0.25618    0.62396    1.000
    N415     N        0.03539    0.26303    0.72369    1.000
    N416     N        0.01377    0.27715    0.65497    1.000
    N417     N        0.07619    0.29314    0.67224    1.000
    Si418    Si       0.04627    0.26237    0.68153    1.000
    N419     N        0.20229    0.28938    0.72393    1.000
    Si420    Si       0.13443    0.24830    0.74738    1.000
    Si421    Si       0.20945    0.25197    0.70210    1.000
    N422     N        0.13599    0.27877    0.71351    1.000
    Si423    Si       0.11784    0.28095    0.67407    1.000
    Si424    Si       0.16373    0.30150    0.73718    1.000
    N425     N        0.12113    0.24593    0.64780    1.000
    N426     N        0.07213    0.27884    0.78687    1.000
    N427     N        0.03528    0.26364    0.84468    1.000
    Si428    Si       0.04710    0.29539    0.81874    1.000
    Si429    Si       0.05761    0.24932    0.75917    1.000
    Si430    Si       0.11113    0.29723    0.79563    1.000
    N431     N        0.00360    0.29742    0.80461    1.000
    N432     N        0.14520    0.27959    0.77553    1.000
    N433     N        0.19155    0.25546    0.82789    1.000
    Si434    Si       0.16936    0.28780    0.81197    1.000
    Si435    Si       0.22649    0.27856    0.85431    1.000
    N436     N        0.13445    0.29797    0.83516    1.000
    N437     N        0.03470    0.28452    0.97335    1.000
    N438     N        0.09207    0.27030    0.92887    1.000
    Si439    Si       0.05417    0.25696    0.94760    1.000
    N440     N        0.02905    0.25287    0.91265    1.000
    Si441    Si       0.99043    0.28975    0.97896    1.000
    Si442    Si       0.06514    0.30511    0.99731    1.000
    Si443    Si       0.23024    0.29928    0.96886    1.000
    N444     N        0.15441    0.25552    0.96381    1.000
    N445     N        0.19864    0.30042    0.93713    1.000
    N446     N        0.15113    0.26180    0.89743    1.000
    Si447    Si       0.17945    0.26129    0.93076    1.000
    Si448    Si       0.13490    0.27120    0.99933    1.000
    Si449    Si       0.00914    0.33831    0.03547    1.000
    Si450    Si       0.07900    0.32689    0.06536    1.000
    N451     N        0.04862    0.32106    0.03344    1.000
    N452     N        0.10370    0.35610    0.03442    1.000
    N453     N        0.99205    0.31897    0.07223    1.000
    Si454    Si       0.17984    0.30501    0.02542    1.000
    N455     N        0.11716    0.31092    0.07931    1.000
    N456     N        0.17895    0.33969    0.05176    1.000
    Si457    Si       0.15200    0.33552    0.08748    1.000
    N458     N        0.17232    0.31621    0.11945    1.000
    N459     N        0.03478    0.30575    0.22577    1.000
    N460     N        0.05423    0.32861    0.16124    1.000
    Si461    Si       0.99712    0.33274    0.13773    1.000
    Si462    Si       0.03169    0.33995    0.19951    1.000
    N463     N        0.99450    0.35230    0.18035    1.000
    N464     N        0.23903    0.36168    0.23590    1.000
    N465     N        0.18712    0.36448    0.17041    1.000
    Si466    Si       0.12276    0.35817    0.23952    1.000
    Si467    Si       0.19934    0.32863    0.15291    1.000
    Si468    Si       0.02320    0.34925    0.32133    1.000
    N469     N        0.04720    0.35159    0.28395    1.000
    N470     N        0.03016    0.30975    0.33600    1.000
    Si471    Si       0.06091    0.31862    0.25944    1.000
    N472     N        0.10264    0.32114    0.24710    1.000
    N473     N        0.19018    0.32009    0.30698    1.000
    Si474    Si       0.16740    0.30669    0.26992    1.000
    N475     N        0.16457    0.34398    0.24881    1.000
    N476     N        0.02654    0.35803    0.48610    1.000
    N477     N        0.04781    0.30878    0.40452    1.000
    Si478    Si       0.08726    0.31210    0.38166    1.000
    N479     N        0.08852    0.32782    0.46251    1.000
    Si480    Si       0.01134    0.31506    0.48007    1.000
    N481     N        0.09737    0.35604    0.38106    1.000
    N482     N        0.22174    0.34328    0.42674    1.000
    N483     N        0.15965    0.31977    0.45456    1.000
    Si484    Si       0.20198    0.32644    0.46419    1.000
    Si485    Si       0.20852    0.33554    0.38636    1.000
    Si486    Si       0.12586    0.30809    0.47694    1.000
    N487     N        0.16613    0.33562    0.38931    1.000
    Si488    Si       0.15304    0.30320    0.41425    1.000
    Si489    Si       0.04665    0.33810    0.58731    1.000
    N490     N        0.08483    0.32487    0.57099    1.000
    N491     N        0.99419    0.31769    0.52198    1.000
    N492     N        0.01605    0.30814    0.58718    1.000
    Si493    Si       0.00588    0.35930    0.52698    1.000
    Si494    Si       0.11634    0.34384    0.54869    1.000
    Si495    Si       0.19573    0.33720    0.57406    1.000
    N496     N        0.12949    0.31199    0.51934    1.000
    N497     N        0.19425    0.32537    0.61650    1.000
    Si498    Si       0.23135    0.32056    0.52192    1.000
    N499     N        0.15385    0.35483    0.56613    1.000
    N500     N        0.23687    0.34783    0.56064    1.000
    N501     N        0.20097    0.34910    0.50164    1.000
    N502     N        0.05673    0.35692    0.62607    1.000
    N503     N        0.03099    0.35625    0.68495    1.000
    Si504    Si       0.99971    0.34508    0.71135    1.000
    Si505    Si       0.06633    0.33497    0.66610    1.000
    N506     N        0.10446    0.35191    0.67902    1.000
    Si507    Si       0.14060    0.34907    0.65675    1.000
    Si508    Si       0.21074    0.34747    0.65151    1.000
    N509     N        0.17735    0.35724    0.67648    1.000
    N510     N        0.15162    0.34473    0.73797    1.000
    N511     N        0.14102    0.30638    0.64819    1.000
    N512     N        0.05511    0.33225    0.83763    1.000
    N513     N        0.10006    0.33881    0.79155    1.000
    N514     N        0.01562    0.34604    0.75233    1.000
    N515     N        0.19363    0.32057    0.79897    1.000
    Si516    Si       0.19963    0.34426    0.83603    1.000
    N517     N        0.19373    0.31179    0.86693    1.000
    Si518    Si       0.23961    0.32452    0.79490    1.000
    Si519    Si       0.03826    0.34585    0.87301    1.000
    N520     N        0.99406    0.33479    0.87955    1.000
    N521     N        0.05219    0.32542    0.91039    1.000
    N522     N        0.08473    0.33089    0.96661    1.000
    Si523    Si       0.09115    0.31190    0.92249    1.000
    Si524    Si       0.00693    0.32807    0.91952    1.000
    N525     N        0.98984    0.32937    0.99853    1.000
    Si526    Si       0.14960    0.30277    0.87751    1.000
    Si527    Si       0.11639    0.34699    0.99271    1.000
    N528     N        0.12527    0.32966    0.90375    1.000
    N529     N        0.14624    0.31490    0.99869    1.000
    Si530    Si       0.21614    0.32311    0.90330    1.000
    N531     N        0.21190    0.36369    0.91504    1.000
    N532     N        0.01586    0.37862    0.05011    1.000
    Si533    Si       0.03334    0.38928    0.08853    1.000
    Si534    Si       0.10545    0.38325    0.06951    1.000
    Si535    Si       0.99713    0.41509    0.03393    1.000
    N536     N        0.01816    0.37123    0.12566    1.000
    N537     N        0.07007    0.36414    0.09155    1.000
    N538     N        0.22985    0.39209    0.04171    1.000
    Si539    Si       0.18898    0.37640    0.03040    1.000
    N540     N        0.13944    0.37641    0.09484    1.000
    N541     N        0.15875    0.40787    0.02471    1.000
    N542     N        0.20426    0.40103    0.11290    1.000
    Si543    Si       0.23351    0.40829    0.08184    1.000
    Si544    Si       0.16146    0.40773    0.11380    1.000
    Si545    Si       0.08044    0.39658    0.19915    1.000
    N546     N        0.07355    0.39794    0.15573    1.000
    N547     N        0.05419    0.36926    0.22107    1.000
    Si548    Si       0.99341    0.39242    0.15813    1.000
    Si549    Si       0.06209    0.36170    0.13496    1.000
    Si550    Si       0.23562    0.38298    0.13957    1.000
    N551     N        0.18270    0.40604    0.22241    1.000
    N552     N        0.15258    0.42226    0.15510    1.000
    N553     N        0.12148    0.38037    0.20315    1.000
    Si554    Si       0.16118    0.39393    0.18619    1.000
    Si555    Si       0.19729    0.37398    0.24868    1.000
    Si556    Si       0.06161    0.39241    0.26184    1.000
    N557     N        0.04070    0.37987    0.35141    1.000
    N558     N        0.10441    0.38268    0.27258    1.000
    N559     N        0.03520    0.41521    0.28952    1.000
    Si560    Si       0.05317    0.41732    0.33035    1.000
    Si561    Si       0.12393    0.39724    0.30646    1.000
    N562     N        0.14856    0.37418    0.33373    1.000
    N563     N        0.19890    0.38905    0.28848    1.000
    Si564    Si       0.22702    0.40451    0.35687    1.000
    N565     N        0.21712    0.36347    0.35358    1.000
    Si566    Si       0.18791    0.36120    0.31967    1.000
    N567     N        0.04582    0.37695    0.42960    1.000
    Si568    Si       0.00884    0.38472    0.45167    1.000
    N569     N        0.10269    0.39586    0.46410    1.000
    Si570    Si       0.06236    0.38208    0.38883    1.000
    Si571    Si       0.11041    0.41781    0.42688    1.000
    Si572    Si       0.06935    0.36606    0.46406    1.000
    Si573    Si       0.13950    0.36845    0.37576    1.000
    Si574    Si       0.22779    0.38574    0.43518    1.000
    N575     N        0.21886    0.41305    0.40124    1.000
    N576     N        0.19119    0.40069    0.45509    1.000
    N577     N        0.14571    0.40295    0.40441    1.000
    Si578    Si       0.19252    0.39085    0.49801    1.000
    N579     N        0.09539    0.37921    0.52979    1.000
    Si580    Si       0.06076    0.39854    0.54994    1.000
    N581     N        0.07985    0.41255    0.58830    1.000
    N582     N        0.03038    0.37011    0.56092    1.000
    Si583    Si       0.11435    0.41192    0.50297    1.000
    N584     N        0.19677    0.40024    0.58596    1.000
    Si585    Si       0.15539    0.39059    0.59366    1.000
    N586     N        0.15685    0.41333    0.51309    1.000
    Si587    Si       0.23548    0.40456    0.60618    1.000
    N588     N        0.21895    0.41579    0.52131    1.000
    N589     N        0.13083    0.37619    0.62452    1.000
    Si590    Si       0.08949    0.38792    0.62313    1.000
    N591     N        0.00564    0.41413    0.64354    1.000
    Si592    Si       0.10251    0.39103    0.69849    1.000
    N593     N        0.08903    0.37941    0.73874    1.000
    N594     N        0.07686    0.40877    0.66325    1.000
    Si595    Si       0.03708    0.38738    0.65571    1.000
    N596     N        0.02562    0.41144    0.74366    1.000
    Si597    Si       0.17119    0.37617    0.71431    1.000
    N598     N        0.20898    0.39363    0.72984    1.000
    N599     N        0.23272    0.38515    0.64418    1.000
    N600     N        0.13981    0.40877    0.70842    1.000
    N601     N        0.05610    0.39298    0.79533    1.000
    N602     N        0.09768    0.39039    0.85211    1.000
    Si603    Si       0.04861    0.37574    0.75330    1.000
    Si604    Si       0.07834    0.36485    0.81985    1.000
    N605     N        0.17707    0.37535    0.85416    1.000
    N606     N        0.14065    0.39265    0.79451    1.000
    Si607    Si       0.13977    0.39518    0.84082    1.000
    Si608    Si       0.12291    0.36498    0.76481    1.000
    N609     N        0.03206    0.38788    0.88200    1.000
    N610     N        0.08191    0.38916    0.92141    1.000
    N611     N        0.06205    0.39234    0.98354    1.000
    Si612    Si       0.07062    0.41039    0.88134    1.000
    Si613    Si       0.01134    0.40299    0.91773    1.000
    N614     N        0.01427    0.36420    0.94435    1.000
    Si615    Si       0.05881    0.36165    0.94981    1.000
    Si616    Si       0.12332    0.37065    0.92135    1.000
    N617     N        0.14882    0.40098    0.90588    1.000
    Si618    Si       0.22431    0.37053    0.95637    1.000
    N619     N        0.13087    0.37571    0.96424    1.000
    Si620    Si       0.18919    0.39396    0.89224    1.000
    Si621    Si       0.16082    0.40251    0.98020    1.000
    N622     N        0.19294    0.37312    0.98726    1.000
    Si623    Si       0.07230    0.45176    0.07975    1.000
    N624     N        0.03244    0.44042    0.03153    1.000
    N625     N        0.09544    0.46480    0.11344    1.000
    N626     N        0.04508    0.42702    0.10271    1.000
    N627     N        0.09474    0.42192    0.05327    1.000
    Si628    Si       0.06953    0.42132    0.01565    1.000
    N629     N        0.13447    0.47507    0.02499    1.000
    Si630    Si       0.13817    0.43749    0.04741    1.000
    N631     N        0.15480    0.44035    0.08752    1.000
    Si632    Si       0.13779    0.47559    0.10732    1.000
    Si633    Si       0.00786    0.46757    0.17984    1.000
    Si634    Si       0.07408    0.46776    0.21900    1.000
    N635     N        0.09395    0.46507    0.17951    1.000
    Si636    Si       0.05100    0.43620    0.14488    1.000
    N637     N        0.01711    0.42589    0.17208    1.000
    N638     N        0.07099    0.42672    0.22971    1.000
    Si639    Si       0.19326    0.44767    0.22556    1.000
    N640     N        0.22658    0.45677    0.19720    1.000
    Si641    Si       0.13693    0.45802    0.17512    1.000
    N642     N        0.15716    0.46932    0.21201    1.000
    N643     N        0.03370    0.44679    0.35638    1.000
    Si644    Si       0.99390    0.42924    0.28939    1.000
    N645     N        0.09507    0.42306    0.32798    1.000
    Si646    Si       0.12276    0.45695    0.32496    1.000
    N647     N        0.19916    0.43103    0.33702    1.000
    N648     N        0.14619    0.43306    0.29542    1.000
    N649     N        0.20456    0.45943    0.26536    1.000
    Si650    Si       0.18949    0.43111    0.29458    1.000
    N651     N        0.14761    0.46477    0.36236    1.000
    Si652    Si       0.19000    0.47057    0.35364    1.000
    Si653    Si       0.99301    0.45569    0.43615    1.000
    Si654    Si       0.10507    0.48053    0.47190    1.000
    Si655    Si       0.05560    0.46033    0.39093    1.000
    N656     N        0.99840    0.42452    0.46773    1.000
    N657     N        0.02924    0.47630    0.42254    1.000
    N658     N        0.07722    0.42228    0.40019    1.000
    Si659    Si       0.12445    0.48028    0.39662    1.000
    N660     N        0.18577    0.46832    0.42028    1.000
    Si661    Si       0.18045    0.42506    0.41851    1.000
    N662     N        0.11842    0.45926    0.43532    1.000
    Si663    Si       0.06522    0.46443    0.53121    1.000
    N664     N        0.03821    0.42729    0.52882    1.000
    N665     N        0.09682    0.45225    0.50294    1.000
    Si666    Si       0.10693    0.44692    0.59053    1.000
    N667     N        0.08973    0.47740    0.56584    1.000
    Si668    Si       0.99493    0.42694    0.51170    1.000
    N669     N        0.00300    0.47701    0.59629    1.000
    N670     N        0.20053    0.46761    0.54948    1.000
    Si671    Si       0.23258    0.45706    0.52207    1.000
    N672     N        0.14318    0.42856    0.57697    1.000
    Si673    Si       0.18016    0.42947    0.55098    1.000
    N674     N        0.09332    0.46125    0.70506    1.000
    Si675    Si       0.00779    0.45699    0.63642    1.000
    Si676    Si       0.08110    0.45179    0.66307    1.000
    N677     N        0.04365    0.47262    0.65517    1.000
    N678     N        0.18594    0.47022    0.64939    1.000
    N679     N        0.11023    0.45813    0.63348    1.000
    Si680    Si       0.13137    0.45035    0.72314    1.000
    N681     N        0.22955    0.46156    0.72325    1.000
    N682     N        0.16295    0.47782    0.70870    1.000
    N683     N        0.01330    0.43504    0.81817    1.000
    Si684    Si       0.01752    0.45996    0.85290    1.000
    Si685    Si       0.03863    0.43028    0.78340    1.000
    N686     N        0.05247    0.46815    0.76980    1.000
    N687     N        0.05690    0.45028    0.87017    1.000
    N688     N        0.19312    0.44593    0.78254    1.000
    N689     N        0.15317    0.43779    0.83856    1.000
    N690     N        0.12890    0.45431    0.76715    1.000
    Si691    Si       0.18025    0.45847    0.86323    1.000
    Si692    Si       0.15388    0.43409    0.79530    1.000
    Si693    Si       0.21656    0.43077    0.75045    1.000
    N694     N        0.09772    0.45117    0.92183    1.000
    N695     N        0.03325    0.43331    0.93958    1.000
    N696     N        0.08460    0.44984    0.98672    1.000
    Si697    Si       0.02243    0.47279    0.95709    1.000
    Si698    Si       0.07495    0.42352    0.94993    1.000
    Si699    Si       0.07006    0.48134    0.90076    1.000
    N700     N        0.20908    0.43183    0.88308    1.000
    Si701    Si       0.14049    0.44180    0.92089    1.000
    Si702    Si       0.12231    0.47116    0.98191    1.000
    N703     N        0.15640    0.47284    0.89517    1.000
    N704     N        0.15200    0.44119    0.96288    1.000
    N705     N        0.00267    0.49451    0.05929    1.000
    N706     N        0.07520    0.48988    0.05425    1.000
    Si707    Si       0.00501    0.53376    0.07508    1.000
    Si708    Si       0.11283    0.50657    0.04430    1.000
    Si709    Si       0.03681    0.48403    0.03372    1.000
    Si710    Si       0.00729    0.53597    0.99754    1.000
    Si711    Si       0.22406    0.51598    0.00817    1.000
    Si712    Si       0.17811    0.52608    0.06718    1.000
    N713     N        0.13782    0.51182    0.08420    1.000
    N714     N        0.20718    0.50462    0.04633    1.000
    N715     N        0.09254    0.53150    0.14468    1.000
    Si716    Si       0.01479    0.51857    0.13552    1.000
    Si717    Si       0.08076    0.48963    0.14592    1.000
    N718     N        0.09879    0.49625    0.24117    1.000
    N719     N        0.03908    0.47981    0.14457    1.000
    N720     N        0.03109    0.47941    0.21685    1.000
    Si721    Si       0.24128    0.49336    0.17340    1.000
    N722     N        0.20815    0.51704    0.15958    1.000
    Si723    Si       0.14034    0.50461    0.23160    1.000
    Si724    Si       0.16474    0.52308    0.16545    1.000
    N725     N        0.15027    0.48828    0.14639    1.000
    N726     N        0.04216    0.51421    0.27654    1.000
    Si727    Si       0.08593    0.51578    0.27804    1.000
    Si728    Si       0.09252    0.52014    0.34581    1.000
    N729     N        0.10693    0.49388    0.31210    1.000
    Si730    Si       0.01171    0.49590    0.25206    1.000
    Si731    Si       0.20301    0.50153    0.27900    1.000
    N732     N        0.18396    0.49780    0.31859    1.000
    N733     N        0.16763    0.52069    0.26416    1.000
    Si734    Si       0.14667    0.52859    0.30595    1.000
    N735     N        0.08561    0.49026    0.37778    1.000
    N736     N        0.07050    0.50843    0.46963    1.000
    Si737    Si       0.03130    0.51192    0.44805    1.000
    N738     N        0.99950    0.50477    0.47659    1.000
    N739     N        0.13829    0.51836    0.41221    1.000
    Si740    Si       0.21627    0.50540    0.40592    1.000
    N741     N        0.19469    0.52650    0.44536    1.000
    N742     N        0.19467    0.53418    0.37675    1.000
    Si743    Si       0.23306    0.51636    0.46717    1.000
    Si744    Si       0.16270    0.49597    0.44386    1.000
    N745     N        0.14155    0.50072    0.48012    1.000
    N746     N        0.22988    0.48019    0.37255    1.000
    N747     N        0.03596    0.49578    0.53635    1.000
    Si748    Si       0.01798    0.51008    0.57338    1.000
    Si749    Si       0.00845    0.52260    0.51522    1.000
    N750     N        0.10471    0.53604    0.52596    1.000
    Si751    Si       0.11229    0.51548    0.56621    1.000
    N752     N        0.14499    0.49625    0.58866    1.000
    N753     N        0.20679    0.51468    0.60371    1.000
    Si754    Si       0.18559    0.50238    0.56819    1.000
    N755     N        0.17316    0.53188    0.53746    1.000
    Si756    Si       0.14395    0.53584    0.50539    1.000
    Si757    Si       0.04108    0.51160    0.67332    1.000
    N758     N        0.03853    0.51009    0.71477    1.000
    N759     N        0.00647    0.53045    0.65506    1.000
    Si760    Si       0.07145    0.48600    0.73308    1.000
    N761     N        0.10712    0.51138    0.74637    1.000
    N762     N        0.19721    0.52834    0.70277    1.000
    Si763    Si       0.22308    0.48089    0.62744    1.000
    Si764    Si       0.14813    0.48512    0.63148    1.000
    N765     N        0.14039    0.51979    0.65725    1.000
    Si766    Si       0.20465    0.48416    0.69347    1.000
    Si767    Si       0.15278    0.52073    0.69933    1.000
    N768     N        0.02351    0.49987    0.83326    1.000
    N769     N        0.09314    0.50609    0.81014    1.000
    Si770    Si       0.05028    0.50191    0.79854    1.000
    Si771    Si       0.09650    0.52876    0.84472    1.000
    Si772    Si       0.99433    0.52690    0.81572    1.000
    N773     N        0.02193    0.53266    0.77872    1.000
    Si774    Si       0.12578    0.49492    0.78217    1.000
    N775     N        0.16691    0.50939    0.79072    1.000
    Si776    Si       0.20456    0.48597    0.79987    1.000
    N777     N        0.20690    0.48648    0.84300    1.000
    N778     N        0.14053    0.53384    0.84704    1.000
    Si779    Si       0.23873    0.51242    0.86318    1.000
    N780     N        0.09719    0.50987    0.88409    1.000
    N781     N        0.04042    0.49946    0.92634    1.000
    N782     N        0.02491    0.49680    0.99446    1.000
    Si783    Si       0.02366    0.53980    0.92523    1.000
    Si784    Si       0.14099    0.51260    0.88697    1.000
    N785     N        0.16530    0.53477    0.91286    1.000
    N786     N        0.20063    0.50328    0.97419    1.000
    Si787    Si       0.16799    0.52245    0.95378    1.000
    N788     N        0.12937    0.50946    0.96496    1.000
    Si789    Si       0.06260    0.57770    0.10077    1.000
    N790     N        0.10214    0.56792    0.08507    1.000
    N791     N        0.00670    0.55622    0.03673    1.000
    N792     N        0.10766    0.54315    0.02134    1.000
    N793     N        0.03977    0.54015    0.10229    1.000
    Si794    Si       0.12178    0.57528    0.04735    1.000
    N795     N        0.22376    0.55949    0.00784    1.000
    N796     N        0.16268    0.56591    0.05336    1.000
    N797     N        0.20883    0.55108    0.09493    1.000
    Si798    Si       0.18884    0.58824    0.07902    1.000
    Si799    Si       0.12488    0.54338    0.11414    1.000
    Si800    Si       0.99650    0.57351    0.18354    1.000
    N801     N        0.02551    0.54623    0.16736    1.000
    Si802    Si       0.06838    0.55865    0.16612    1.000
    N803     N        0.08422    0.57290    0.20432    1.000
    N804     N        0.01760    0.58775    0.21930    1.000
    N805     N        0.14603    0.59421    0.24507    1.000
    Si806    Si       0.12754    0.57738    0.20599    1.000
    N807     N        0.19906    0.59009    0.17091    1.000
    Si808    Si       0.20705    0.55805    0.13979    1.000
    N809     N        0.21253    0.57548    0.23984    1.000
    N810     N        0.15979    0.55639    0.13749    1.000
    N811     N        0.14541    0.53830    0.20216    1.000
    N812     N        0.02463    0.57894    0.28864    1.000
    Si813    Si       0.04872    0.58128    0.35879    1.000
    N814     N        0.06014    0.54469    0.33695    1.000
    Si815    Si       0.99753    0.57281    0.25478    1.000
    Si816    Si       0.11046    0.59091    0.27499    1.000
    N817     N        0.11326    0.54913    0.28340    1.000
    N818     N        0.00429    0.58891    0.36819    1.000
    Si819    Si       0.02745    0.54007    0.30734    1.000
    N820     N        0.17863    0.56466    0.30516    1.000
    Si821    Si       0.20382    0.55848    0.34094    1.000
    Si822    Si       0.17573    0.56487    0.25998    1.000
    N823     N        0.13394    0.54015    0.34651    1.000
    N824     N        0.19049    0.59766    0.35613    1.000
    Si825    Si       0.05336    0.58308    0.43577    1.000
    N826     N        0.08307    0.57873    0.46839    1.000
    N827     N        0.02126    0.55351    0.43727    1.000
    N828     N        0.07396    0.58076    0.39662    1.000
    Si829    Si       0.15418    0.54703    0.38605    1.000
    N830     N        0.15306    0.57212    0.47992    1.000
    Si831    Si       0.19408    0.56754    0.46325    1.000
    N832     N        0.22664    0.55400    0.49069    1.000
    N833     N        0.14535    0.58599    0.40082    1.000
    N834     N        0.20638    0.59632    0.43270    1.000
    Si835    Si       0.06992    0.57437    0.58140    1.000
    N836     N        0.03544    0.55825    0.50999    1.000
    N837     N        0.03698    0.54425    0.59223    1.000
    N838     N        0.10165    0.54624    0.59480    1.000
    N839     N        0.07292    0.59853    0.54391    1.000
    Si840    Si       0.07644    0.54466    0.49414    1.000
    N841     N        0.19514    0.58619    0.60392    1.000
    Si842    Si       0.21033    0.55490    0.53046    1.000
    Si843    Si       0.22598    0.55505    0.60156    1.000
    N844     N        0.19339    0.59550    0.53902    1.000
    Si845    Si       0.01346    0.56072    0.62615    1.000
    N846     N        0.00242    0.57445    0.72005    1.000
    Si847    Si       0.03144    0.54707    0.73879    1.000
    Si848    Si       0.10920    0.54862    0.63925    1.000
    N849     N        0.06993    0.56753    0.74155    1.000
    Si850    Si       0.11241    0.55319    0.74732    1.000
    N851     N        0.07283    0.53584    0.65894    1.000
    N852     N        0.02256    0.59819    0.64764    1.000
    Si853    Si       0.14435    0.59113    0.68283    1.000
    N854     N        0.13530    0.56047    0.71131    1.000
    N855     N        0.19400    0.58626    0.74015    1.000
    N856     N        0.12526    0.58936    0.64430    1.000
    Si857    Si       0.20914    0.56872    0.70679    1.000
    N858     N        0.18822    0.58960    0.67347    1.000
    N859     N        0.07294    0.56329    0.84357    1.000
    N860     N        0.98801    0.56295    0.84110    1.000
    N861     N        0.19607    0.57190    0.81096    1.000
    N862     N        0.13031    0.56973    0.78370    1.000
    Si863    Si       0.22118    0.58168    0.84440    1.000
    Si864    Si       0.15993    0.54924    0.81144    1.000
    N865     N        0.21870    0.54996    0.87394    1.000
    Si866    Si       0.19653    0.60197    0.77885    1.000
    N867     N        0.05007    0.57004    0.91024    1.000
    N868     N        0.02714    0.55834    0.96515    1.000
    N869     N        0.09966    0.58339    0.95766    1.000
    Si870    Si       0.06840    0.58966    0.87944    1.000
    Si871    Si       0.05592    0.58918    0.94850    1.000
    Si872    Si       0.12040    0.55064    0.98095    1.000
    N873     N        0.16184    0.56295    0.97391    1.000
    N874     N        0.22463    0.56590    0.94026    1.000
    Si875    Si       0.19565    0.56443    0.90662    1.000
    Si876    Si       0.20115    0.58315    0.97681    1.000
    N877     N        0.03794    0.60484    0.07727    1.000
    Si878    Si       0.04096    0.64774    0.08810    1.000
    Si879    Si       0.11311    0.65119    0.05576    1.000
    N880     N        0.11118    0.61337    0.03061    1.000
    Si881    Si       0.00187    0.59872    0.05301    1.000
    N882     N        0.21844    0.61255    0.05965    1.000
    N883     N        0.17145    0.61142    0.10752    1.000
    Si884    Si       0.17884    0.65457    0.11051    1.000
    N885     N        0.06699    0.63794    0.19544    1.000
    Si886    Si       0.09337    0.62850    0.16205    1.000
    Si887    Si       0.99950    0.64710    0.15292    1.000
    Si888    Si       0.05782    0.60325    0.22110    1.000
    N889     N        0.07344    0.59477    0.14000    1.000
    N890     N        0.18061    0.65034    0.15308    1.000
    N891     N        0.19368    0.63929    0.22293    1.000
    N892     N        0.13079    0.60839    0.17477    1.000
    Si893    Si       0.16606    0.60805    0.15017    1.000
    Si894    Si       0.21509    0.60624    0.20680    1.000
    Si895    Si       0.04400    0.61786    0.29238    1.000
    Si896    Si       0.09677    0.63455    0.33170    1.000
    N897     N        0.05938    0.61346    0.33326    1.000
    N898     N        0.07498    0.61718    0.26100    1.000
    N899     N        0.01636    0.65148    0.29333    1.000
    N900     N        0.18653    0.63431    0.29309    1.000
    N901     N        0.12538    0.61149    0.30881    1.000
    Si902    Si       0.16713    0.60661    0.31948    1.000
    Si903    Si       0.16547    0.63395    0.25581    1.000
    N904     N        0.11107    0.63718    0.37101    1.000
    Si905    Si       0.99635    0.62086    0.39849    1.000
    N906     N        0.03219    0.62065    0.42702    1.000
    Si907    Si       0.03240    0.65109    0.45702    1.000
    Si908    Si       0.10680    0.60745    0.40354    1.000
    N909     N        0.02666    0.63090    0.49462    1.000
    N910     N        0.11018    0.62880    0.44009    1.000
    N911     N        0.24015    0.64324    0.39714    1.000
    Si912    Si       0.18223    0.60872    0.39741    1.000
    N913     N        0.17274    0.65068    0.40212    1.000
    Si914    Si       0.12024    0.60164    0.47508    1.000
    Si915    Si       0.10389    0.63157    0.54495    1.000
    N916     N        0.07125    0.60815    0.60861    1.000
    N917     N        0.00547    0.60218    0.55396    1.000
    Si918    Si       0.98970    0.64077    0.56763    1.000
    Si919    Si       0.03470    0.59940    0.52262    1.000
    Si920    Si       0.11213    0.61992    0.61710    1.000
    N921     N        0.19815    0.64886    0.57202    1.000
    N922     N        0.12291    0.63125    0.50790    1.000
    Si923    Si       0.17396    0.61183    0.57770    1.000
    N924     N        0.13181    0.61892    0.57742    1.000
    Si925    Si       0.21521    0.63348    0.53505    1.000
    N926     N        0.19377    0.65212    0.50215    1.000
    N927     N        0.05039    0.62320    0.70792    1.000
    Si928    Si       0.01359    0.60497    0.69019    1.000
    Si929    Si       0.04091    0.63066    0.62520    1.000
    N930     N        0.14224    0.63219    0.69526    1.000
    Si931    Si       0.20439    0.60887    0.64024    1.000
    N932     N        0.18606    0.64839    0.63479    1.000
    Si933    Si       0.12198    0.65605    0.72488    1.000
    N934     N        0.11771    0.65836    0.63614    1.000
    N935     N        0.04381    0.61569    0.85541    1.000
    N936     N        0.10196    0.62064    0.82347    1.000
    Si937    Si       0.01395    0.63883    0.79081    1.000
    N938     N        0.04536    0.61032    0.78273    1.000
    Si939    Si       0.00136    0.60212    0.85115    1.000
    N940     N        0.10249    0.63015    0.75384    1.000
    Si941    Si       0.06592    0.59724    0.81883    1.000
    Si942    Si       0.11318    0.64065    0.86188    1.000
    Si943    Si       0.06604    0.60953    0.74537    1.000
    N944     N        0.16462    0.63093    0.79065    1.000
    Si945    Si       0.12586    0.61354    0.78839    1.000
    N946     N        0.23451    0.62118    0.78280    1.000
    N947     N        0.21798    0.62194    0.86444    1.000
    N948     N        0.10364    0.61029    0.89465    1.000
    N949     N        0.03051    0.62459    0.94104    1.000
    N950     N        0.07877    0.64654    0.97422    1.000
    Si951    Si       0.98972    0.62611    0.92604    1.000
    Si952    Si       0.18255    0.65535    0.95917    1.000
    N953     N        0.17172    0.59887    0.90997    1.000
    Si954    Si       0.18386    0.63463    0.88861    1.000
    N955     N        0.20817    0.62615    0.97829    1.000
    Si956    Si       0.13113    0.60346    0.93229    1.000
    N957     N        0.14437    0.63217    0.96147    1.000
    Si958    Si       0.11511    0.63803    0.99458    1.000
    N959     N        0.07560    0.66703    0.07124    1.000
    N960     N        0.00340    0.66135    0.06624    1.000
    Si961    Si       0.07330    0.70982    0.07331    1.000
    N962     N        0.02579    0.68277    0.99791    1.000
    N963     N        0.17696    0.71610    0.05100    1.000
    N964     N        0.12490    0.67274    0.01976    1.000
    N965     N        0.23109    0.67295    0.02851    1.000
    N966     N        0.21636    0.67319    0.09681    1.000
    Si967    Si       0.15194    0.70549    0.01507    1.000
    N968     N        0.14532    0.66659    0.08383    1.000
    Si969    Si       0.14953    0.71053    0.08279    1.000
    N970     N        0.00305    0.66295    0.19494    1.000
    N971     N        0.05146    0.70944    0.17783    1.000
    Si972    Si       0.06162    0.68940    0.14000    1.000
    Si973    Si       0.04584    0.67357    0.20305    1.000
    N974     N        0.10081    0.67097    0.14912    1.000
    N975     N        0.06422    0.68666    0.24174    1.000
    N976     N        0.03392    0.65780    0.12853    1.000
    N977     N        0.22942    0.68719    0.19518    1.000
    Si978    Si       0.12876    0.70246    0.16041    1.000
    Si979    Si       0.14640    0.70354    0.23976    1.000
    Si980    Si       0.18738    0.67130    0.19266    1.000
    Si981    Si       0.22972    0.68129    0.24038    1.000
    N982     N        0.15207    0.69468    0.19490    1.000
    Si983    Si       0.02369    0.68571    0.31769    1.000
    N984     N        0.08954    0.66694    0.30460    1.000
    N985     N        0.04199    0.68964    0.36001    1.000
    Si986    Si       0.08928    0.71186    0.30671    1.000
    Si987    Si       0.09184    0.65879    0.26285    1.000
    N988     N        0.19050    0.70337    0.24919    1.000
    N989     N        0.22324    0.69563    0.31313    1.000
    N990     N        0.15607    0.69532    0.35455    1.000
    N991     N        0.13345    0.66234    0.25260    1.000
    Si992    Si       0.22368    0.65396    0.30230    1.000
    N993     N        0.06295    0.68129    0.45838    1.000
    Si994    Si       0.10259    0.67015    0.44488    1.000
    Si995    Si       0.07658    0.70942    0.38179    1.000
    N996     N        0.10851    0.69178    0.40616    1.000
    N997     N        0.99258    0.66667    0.45569    1.000
    Si998    Si       0.22411    0.67248    0.48101    1.000
    N999     N        0.21219    0.71083    0.38689    1.000
    N1000    N        0.13114    0.68870    0.47107    1.000
    N1001    N        0.20662    0.69003    0.44677    1.000
    Si1002   Si       0.13791    0.66869    0.38393    1.000
    Si1003   Si       0.20968    0.67188    0.40758    1.000
    N1004    N        0.08058    0.66702    0.55307    1.000
    Si1005   Si       0.07172    0.70741    0.56241    1.000
    N1006    N        0.01718    0.65524    0.59898    1.000
    Si1007   Si       0.20525    0.67632    0.60372    1.000
    N1008    N        0.15171    0.69600    0.53561    1.000
    N1009    N        0.17098    0.70610    0.60529    1.000
    Si1010   Si       0.15149    0.66576    0.50260    1.000
    N1011    N        0.23643    0.70209    0.57907    1.000
    N1012    N        0.24387    0.70260    0.50879    1.000
    Si1013   Si       0.02606    0.68971    0.62396    1.000
    Si1014   Si       0.05135    0.66324    0.69440    1.000
    N1015    N        0.05303    0.66532    0.64986    1.000
    N1016    N        0.09359    0.67916    0.69742    1.000
    N1017    N        0.02779    0.68584    0.72065    1.000
    Si1018   Si       0.09149    0.68684    0.65451    1.000
    N1019    N        0.22370    0.70118    0.63845    1.000
    Si1020   Si       0.15353    0.65872    0.66183    1.000
    N1021    N        0.22412    0.68683    0.70912    1.000
    N1022    N        0.15771    0.67786    0.74141    1.000
    Si1023   Si       0.18422    0.70210    0.71595    1.000
    N1024    N        0.16430    0.69718    0.67708    1.000
    Si1025   Si       0.23823    0.67280    0.66957    1.000
    N1026    N        0.04210    0.67136    0.80577    1.000
    N1027    N        0.08349    0.67360    0.86450    1.000
    Si1028   Si       0.04612    0.66158    0.84905    1.000
    Si1029   Si       0.05471    0.70636    0.78365    1.000
    N1030    N        0.01110    0.68240    0.86734    1.000
    N1031    N        0.09193    0.71044    0.75990    1.000
    Si1032   Si       0.15701    0.69806    0.85195    1.000
    N1033    N        0.14219    0.69551    0.81104    1.000
    Si1034   Si       0.16848    0.67320    0.78326    1.000
    N1035    N        0.20805    0.68625    0.79030    1.000
    N1036    N        0.19473    0.70804    0.86713    1.000
    N1037    N        0.15256    0.65648    0.86644    1.000
    Si1038   Si       0.03995    0.66285    0.96098    1.000
    N1039    N        0.04158    0.69987    0.93303    1.000
    Si1040   Si       0.00689    0.69802    0.90681    1.000
    N1041    N        0.19700    0.66283    0.91809    1.000
    N1042    N        0.17576    0.69445    0.97663    1.000
    Si1043   Si       0.21761    0.69759    0.90209    1.000
    Si1044   Si       0.02266    0.74365    0.09214    1.000
    Si1045   Si       0.02239    0.72685    0.01335    1.000
    N1046    N        0.04014    0.72779    0.05284    1.000
    N1047    N        0.05539    0.72080    0.11208    1.000
    N1048    N        0.11193    0.72758    0.06924    1.000
    Si1049   Si       0.11518    0.76189    0.04315    1.000
    N1050    N        0.12983    0.74255    0.00689    1.000
    N1051    N        0.21639    0.74098    0.00563    1.000
    Si1052   Si       0.21829    0.71327    0.03822    1.000
    N1053    N        0.05730    0.75558    0.22867    1.000
    Si1054   Si       0.06839    0.74744    0.18704    1.000
    N1055    N        0.99960    0.72065    0.24189    1.000
    N1056    N        0.11099    0.73809    0.17799    1.000
    N1057    N        0.15692    0.71850    0.12654    1.000
    Si1058   Si       0.18939    0.74509    0.13583    1.000
    N1059    N        0.22225    0.76907    0.21797    1.000
    N1060    N        0.15123    0.75013    0.23149    1.000
    Si1061   Si       0.14082    0.76697    0.19107    1.000
    N1062    N        0.23317    0.73236    0.14026    1.000
    Si1063   Si       0.19399    0.74627    0.24304    1.000
    N1064    N        0.17680    0.76991    0.16910    1.000
    N1065    N        0.00706    0.75332    0.35996    1.000
    N1066    N        0.09894    0.72673    0.34674    1.000
    Si1067   Si       0.04360    0.72086    0.25339    1.000
    N1068    N        0.04534    0.71784    0.29605    1.000
    N1069    N        0.11634    0.72562    0.27545    1.000
    N1070    N        0.17902    0.74818    0.33015    1.000
    Si1071   Si       0.14060    0.73717    0.34912    1.000
    Si1072   Si       0.12607    0.76471    0.26437    1.000
    N1073    N        0.21771    0.76436    0.27930    1.000
    Si1074   Si       0.19699    0.70979    0.34446    1.000
    N1075    N        0.01886    0.74059    0.47099    1.000
    N1076    N        0.09016    0.74463    0.46286    1.000
    N1077    N        0.04981    0.73232    0.40863    1.000
    Si1078   Si       0.05402    0.72433    0.45107    1.000
    Si1079   Si       0.03267    0.77161    0.39138    1.000
    Si1080   Si       0.00831    0.71298    0.37561    1.000
    N1081    N        0.23718    0.74949    0.44614    1.000
    N1082    N        0.13562    0.77346    0.37377    1.000
    N1083    N        0.16250    0.74270    0.43427    1.000
    Si1084   Si       0.20296    0.72973    0.42870    1.000
    Si1085   Si       0.13469    0.73216    0.46567    1.000
    Si1086   Si       0.08971    0.74486    0.60851    1.000
    Si1087   Si       0.01701    0.74873    0.51448    1.000
    N1088    N        0.04928    0.72783    0.53337    1.000
    N1089    N        0.05132    0.72070    0.60426    1.000
    N1090    N        0.10722    0.72768    0.57558    1.000
    N1091    N        0.99484    0.76110    0.59569    1.000
    N1092    N        0.16590    0.76104    0.56807    1.000
    N1093    N        0.21950    0.76829    0.61003    1.000
    Si1094   Si       0.15035    0.72030    0.56996    1.000
    N1095    N        0.13994    0.76341    0.49694    1.000
    Si1096   Si       0.02260    0.75013    0.62596    1.000
    N1097    N        0.05579    0.74637    0.71022    1.000
    Si1098   Si       0.01066    0.72940    0.72463    1.000
    N1099    N        0.09827    0.72897    0.64880    1.000
    Si1100   Si       0.08938    0.72169    0.71855    1.000
    N1101    N        0.99801    0.77193    0.71105    1.000
    N1102    N        0.00447    0.71689    0.64783    1.000
    N1103    N        0.12554    0.74409    0.71195    1.000
    Si1104   Si       0.18293    0.71966    0.64511    1.000
    N1105    N        0.16315    0.75812    0.64713    1.000
    Si1106   Si       0.15323    0.76325    0.73865    1.000
    Si1107   Si       0.12489    0.75845    0.66888    1.000
    N1108    N        0.19120    0.74235    0.73159    1.000
    Si1109   Si       0.22825    0.76278    0.74673    1.000
    N1110    N        0.07922    0.72795    0.81575    1.000
    N1111    N        0.01725    0.72570    0.76784    1.000
    N1112    N        0.02201    0.76654    0.81738    1.000
    Si1113   Si       0.06276    0.76410    0.83217    1.000
    N1114    N        0.05933    0.74756    0.87089    1.000
    Si1115   Si       0.08744    0.71670    0.85953    1.000
    Si1116   Si       0.98928    0.74265    0.79856    1.000
    Si1117   Si       0.11685    0.72656    0.79295    1.000
    N1118    N        0.14522    0.75900    0.78099    1.000
    N1119    N        0.12762    0.72885    0.86498    1.000
    Si1120   Si       0.13165    0.77345    0.86118    1.000
    Si1121   Si       0.02685    0.76909    0.88970    1.000
    N1122    N        0.99498    0.74111    0.90039    1.000
    N1123    N        0.10030    0.74521    0.93996    1.000
    Si1124   Si       0.05775    0.73765    0.94542    1.000
    N1125    N        0.04979    0.75050    0.98692    1.000
    Si1126   Si       0.23462    0.77132    0.93098    1.000
    N1127    N        0.22163    0.72855    0.93698    1.000
    Si1128   Si       0.12718    0.75988    0.96882    1.000
    N1129    N        0.16794    0.76419    0.95523    1.000
    Si1130   Si       0.19277    0.73234    0.96947    1.000
    N1131    N        0.08003    0.78825    0.03922    1.000
    N1132    N        0.06487    0.82198    0.10638    1.000
    Si1133   Si       0.06627    0.82378    0.06370    1.000
    N1134    N        0.01118    0.78268    0.10616    1.000
    Si1135   Si       0.06965    0.78793    0.99772    1.000
    Si1136   Si       0.23239    0.78148    0.01099    1.000
    N1137    N        0.21133    0.80388    0.04086    1.000
    N1138    N        0.14200    0.79108    0.05958    1.000
    Si1139   Si       0.18265    0.79631    0.07453    1.000
    N1140    N        0.19927    0.77227    0.10485    1.000
    N1141    N        0.00016    0.81445    0.15709    1.000
    N1142    N        0.06262    0.78539    0.16634    1.000
    Si1143   Si       0.08156    0.82106    0.18458    1.000
    Si1144   Si       0.03856    0.80237    0.13567    1.000
    N1145    N        0.06121    0.82776    0.22173    1.000
    Si1146   Si       0.23968    0.77336    0.12493    1.000
    Si1147   Si       0.21023    0.79417    0.18605    1.000
    N1148    N        0.12577    0.80885    0.19400    1.000
    N1149    N        0.19527    0.83255    0.19988    1.000
    N1150    N        0.24198    0.80249    0.15721    1.000
    N1151    N        0.09504    0.79247    0.26749    1.000
    N1152    N        0.03088    0.81056    0.28225    1.000
    Si1153   Si       0.10636    0.80300    0.36447    1.000
    Si1154   Si       0.05597    0.79396    0.24996    1.000
    N1155    N        0.11243    0.82452    0.32616    1.000
    Si1156   Si       0.12045    0.82362    0.28407    1.000
    N1157    N        0.19676    0.81704    0.33153    1.000
    N1158    N        0.15427    0.79517    0.28065    1.000
    Si1159   Si       0.18741    0.78175    0.30598    1.000
    N1160    N        0.23677    0.82718    0.25406    1.000
    N1161    N        0.06441    0.79608    0.37422    1.000
    Si1162   Si       0.00092    0.82603    0.42422    1.000
    N1163    N        0.00280    0.78264    0.41985    1.000
    N1164    N        0.07739    0.81208    0.48995    1.000
    Si1165   Si       0.10664    0.78436    0.47548    1.000
    Si1166   Si       0.21922    0.80865    0.36949    1.000
    N1167    N        0.22912    0.82343    0.46200    1.000
    Si1168   Si       0.15474    0.78086    0.41217    1.000
    N1169    N        0.19447    0.79687    0.40520    1.000
    N1170    N        0.12561    0.80040    0.43884    1.000
    Si1171   Si       0.20587    0.83583    0.42781    1.000
    N1172    N        0.09770    0.78695    0.61018    1.000
    N1173    N        0.01323    0.79087    0.53127    1.000
    N1174    N        0.12004    0.80690    0.54815    1.000
    Si1175   Si       0.12138    0.81791    0.59155    1.000
    Si1176   Si       0.15618    0.78580    0.53351    1.000
    N1177    N        0.16047    0.81593    0.60806    1.000
    N1178    N        0.18767    0.81105    0.51777    1.000
    Si1179   Si       0.17683    0.77620    0.60823    1.000
    Si1180   Si       0.07672    0.80421    0.64542    1.000
    N1181    N        0.10509    0.79606    0.67834    1.000
    Si1182   Si       0.03599    0.78045    0.69315    1.000
    N1183    N        0.04778    0.81962    0.70885    1.000
    Si1184   Si       0.09342    0.82342    0.71379    1.000
    N1185    N        0.04019    0.78036    0.64949    1.000
    N1186    N        0.19064    0.82943    0.66879    1.000
    Si1187   Si       0.19779    0.81960    0.70863    1.000
    N1188    N        0.23435    0.79585    0.71999    1.000
    N1189    N        0.16415    0.80510    0.73125    1.000
    Si1190   Si       0.01784    0.81169    0.82594    1.000
    N1191    N        0.10032    0.78695    0.83033    1.000
    Si1192   Si       0.09576    0.82056    0.80133    1.000
    N1193    N        0.10419    0.82052    0.75831    1.000
    N1194    N        0.05406    0.83000    0.81031    1.000
    Si1195   Si       0.17740    0.78329    0.80123    1.000
    Si1196   Si       0.19854    0.80787    0.86260    1.000
    N1197    N        0.22045    0.78107    0.78671    1.000
    N1198    N        0.16023    0.82534    0.79834    1.000
    N1199    N        0.22626    0.82699    0.83571    1.000
    N1200    N        0.17250    0.77620    0.84336    1.000
    N1201    N        0.01897    0.80720    0.87089    1.000
    N1202    N        0.04209    0.81885    0.98513    1.000
    Si1203   Si       0.02546    0.80978    0.94612    1.000
    N1204    N        0.10398    0.79915    0.97113    1.000
    Si1205   Si       0.09466    0.79050    0.92673    1.000
    N1206    N        0.04966    0.77979    0.92698    1.000
    N1207    N        0.08853    0.83524    0.92285    1.000
    N1208    N        0.20603    0.79210    0.90310    1.000
    N1209    N        0.13118    0.78797    0.90183    1.000
    Si1210   Si       0.16785    0.79579    0.92353    1.000
    N1211    N        0.23054    0.79456    0.96875    1.000
    N1212    N        0.15583    0.83434    0.94089    1.000
    N1213    N        0.09776    0.85274    0.05258    1.000
    Si1214   Si       0.02008    0.84929    0.00878    1.000
    N1215    N        0.03097    0.88292    0.10424    1.000
    Si1216   Si       0.00205    0.86389    0.07922    1.000
    N1217    N        0.02748    0.84171    0.05128    1.000
    N1218    N        0.10131    0.89136    0.10609    1.000
    Si1219   Si       0.06764    0.86462    0.12176    1.000
    Si1220   Si       0.09940    0.89573    0.06241    1.000
    Si1221   Si       0.20562    0.84711    0.03031    1.000
    N1222    N        0.16375    0.85345    0.02268    1.000
    N1223    N        0.21089    0.87794    0.06026    1.000
    N1224    N        0.16941    0.83697    0.08792    1.000
    Si1225   Si       0.18561    0.86614    0.11591    1.000
    N1226    N        0.23582    0.85593    0.99959    1.000
    Si1227   Si       0.13772    0.83514    0.05513    1.000
    N1228    N        0.22892    0.86053    0.12283    1.000
    Si1229   Si       0.14898    0.89119    0.00525    1.000
    Si1230   Si       0.04373    0.86735    0.22845    1.000
    N1231    N        0.08533    0.85528    0.15875    1.000
    N1232    N        0.00592    0.86478    0.20479    1.000
    Si1233   Si       0.11228    0.88877    0.23864    1.000
    Si1234   Si       0.22729    0.85361    0.22096    1.000
    N1235    N        0.15360    0.86110    0.14964    1.000
    Si1236   Si       0.15372    0.84226    0.18935    1.000
    Si1237   Si       0.11861    0.88801    0.14826    1.000
    N1238    N        0.14777    0.87716    0.21614    1.000
    Si1239   Si       0.02636    0.86276    0.31157    1.000
    N1240    N        0.05475    0.85445    0.34569    1.000
    Si1241   Si       0.09856    0.86186    0.34487    1.000
    N1242    N        0.03443    0.87720    0.27099    1.000
    N1243    N        0.10904    0.86281    0.27340    1.000
    Si1244   Si       0.19580    0.86016    0.32040    1.000
    N1245    N        0.18268    0.88328    0.35599    1.000
    N1246    N        0.17277    0.87702    0.28755    1.000
    N1247    N        0.03387    0.87730    0.47051    1.000
    N1248    N        0.09728    0.86589    0.45060    1.000
    Si1249   Si       0.06108    0.84316    0.46142    1.000
    N1250    N        0.10516    0.84383    0.38580    1.000
    Si1251   Si       0.05861    0.83730    0.38507    1.000
    Si1252   Si       0.99264    0.87061    0.48271    1.000
    N1253    N        0.04288    0.83398    0.42418    1.000
    N1254    N        0.16708    0.85576    0.43546    1.000
    Si1255   Si       0.21543    0.88711    0.38572    1.000
    N1256    N        0.20189    0.87810    0.49543    1.000
    Si1257   Si       0.12783    0.86193    0.41938    1.000
    N1258    N        0.22729    0.84668    0.39120    1.000
    Si1259   Si       0.18374    0.89081    0.45850    1.000
    Si1260   Si       0.06866    0.86713    0.59535    1.000
    N1261    N        0.99823    0.86636    0.52606    1.000
    N1262    N        0.05842    0.83844    0.56029    1.000
    N1263    N        0.11243    0.86882    0.51935    1.000
    N1264    N        0.11151    0.86121    0.58594    1.000
    Si1265   Si       0.01504    0.83120    0.54805    1.000
    Si1266   Si       0.08856    0.83035    0.52976    1.000
    Si1267   Si       0.21752    0.83811    0.50297    1.000
    N1268    N        0.22293    0.84049    0.60521    1.000
    Si1269   Si       0.12530    0.88964    0.55612    1.000
    N1270    N        0.19045    0.88854    0.62468    1.000
    N1271    N        0.07267    0.84607    0.63709    1.000
    Si1272   Si       0.03230    0.85904    0.70915    1.000
    N1273    N        0.10183    0.86311    0.70095    1.000
    Si1274   Si       0.08137    0.88521    0.66270    1.000
    N1275    N        0.98746    0.86665    0.69477    1.000
    Si1276   Si       0.18583    0.84480    0.62888    1.000
    N1277    N        0.15141    0.87892    0.74889    1.000
    N1278    N        0.21289    0.85484    0.73128    1.000
    Si1279   Si       0.19242    0.89189    0.72888    1.000
    Si1280   Si       0.06580    0.86681    0.82670    1.000
    N1281    N        0.10980    0.85663    0.82370    1.000
    N1282    N        0.05411    0.86590    0.86874    1.000
    N1283    N        0.01994    0.87400    0.74952    1.000
    Si1284   Si       0.15398    0.85291    0.83083    1.000
    Si1285   Si       0.22635    0.87068    0.83322    1.000
    N1286    N        0.18521    0.88393    0.82738    1.000
    Si1287   Si       0.14603    0.83488    0.75796    1.000
    N1288    N        0.16627    0.83717    0.87117    1.000
    N1289    N        0.02808    0.88651    0.98943    1.000
    Si1290   Si       0.08155    0.87129    0.90211    1.000
    Si1291   Si       0.01707    0.85090    0.88486    1.000
    N1292    N        0.01925    0.85082    0.92788    1.000
    Si1293   Si       0.02453    0.89070    0.94555    1.000
    Si1294   Si       0.11703    0.84164    0.95606    1.000
    Si1295   Si       0.15728    0.86182    0.90565    1.000
    N1296    N        0.12171    0.88533    0.89621    1.000
    N1297    N        0.11695    0.88338    0.97590    1.000
    N1298    N        0.18796    0.88957    0.91893    1.000
    Si1299   Si       0.23058    0.88787    0.91084    1.000
    N1300    N        0.06137    0.91437    0.05305    1.000
    Si1301   Si       0.04310    0.91954    0.01382    1.000
    Si1302   Si       0.04137    0.92295    0.09053    1.000
    N1303    N        0.99995    0.94217    0.08939    1.000
    N1304    N        0.00736    0.94464    0.01990    1.000
    N1305    N        0.13250    0.91096    0.04054    1.000
    N1306    N        0.17619    0.90897    0.11149    1.000
    Si1307   Si       0.20258    0.91664    0.07857    1.000
    Si1308   Si       0.20731    0.93821    0.01025    1.000
    N1309    N        0.18667    0.94590    0.04924    1.000
    Si1310   Si       0.14351    0.95242    0.05284    1.000
    N1311    N        0.00424    0.93604    0.16173    1.000
    N1312    N        0.01609    0.92534    0.22960    1.000
    Si1313   Si       0.05608    0.93616    0.22322    1.000
    Si1314   Si       0.99475    0.90772    0.19538    1.000
    N1315    N        0.07495    0.89617    0.22185    1.000
    Si1316   Si       0.15195    0.94204    0.12714    1.000
    Si1317   Si       0.17454    0.90293    0.24076    1.000
    N1318    N        0.18064    0.93945    0.21566    1.000
    N1319    N        0.12461    0.93066    0.15996    1.000
    N1320    N        0.23672    0.94148    0.15267    1.000
    N1321    N        0.21781    0.89141    0.23967    1.000
    Si1322   Si       0.01416    0.91478    0.27464    1.000
    N1323    N        0.00991    0.90346    0.32318    1.000
    Si1324   Si       0.00987    0.94510    0.33287    1.000
    N1325    N        0.13488    0.91911    0.26071    1.000
    Si1326   Si       0.15075    0.91064    0.36468    1.000
    N1327    N        0.23444    0.91706    0.36068    1.000
    N1328    N        0.12029    0.89834    0.33346    1.000
    Si1329   Si       0.13382    0.89167    0.29457    1.000
    Si1330   Si       0.04719    0.91714    0.46362    1.000
    N1331    N        0.06273    0.93107    0.42480    1.000
    Si1332   Si       0.10502    0.94119    0.41252    1.000
    N1333    N        0.99311    0.93136    0.40720    1.000
    N1334    N        0.01675    0.94544    0.47183    1.000
    Si1335   Si       0.10981    0.89039    0.48219    1.000
    N1336    N        0.08089    0.92217    0.49117    1.000
    N1337    N        0.13012    0.90516    0.40059    1.000
    N1338    N        0.21370    0.90168    0.42785    1.000
    N1339    N        0.14696    0.90825    0.47517    1.000
    N1340    N        0.19121    0.94814    0.49336    1.000
    N1341    N        0.10162    0.92557    0.55921    1.000
    Si1342   Si       0.09914    0.93466    0.60227    1.000
    Si1343   Si       0.00017    0.89725    0.55589    1.000
    Si1344   Si       0.03992    0.92464    0.61250    1.000
    N1345    N        0.99792    0.93855    0.53827    1.000
    N1346    N        0.03664    0.89575    0.58030    1.000
    N1347    N        0.07651    0.90540    0.62446    1.000
    Si1348   Si       0.19272    0.91377    0.52263    1.000
    Si1349   Si       0.17461    0.92067    0.59978    1.000
    N1350    N        0.16675    0.90451    0.55968    1.000
    N1351    N        0.23318    0.91959    0.53838    1.000
    N1352    N        0.13893    0.93601    0.62118    1.000
    Si1353   Si       0.24048    0.94334    0.57275    1.000
    N1354    N        0.05768    0.93434    0.73994    1.000
    N1355    N        0.10538    0.92264    0.68159    1.000
    Si1356   Si       0.00297    0.90550    0.68120    1.000
    Si1357   Si       0.06662    0.93351    0.69754    1.000
    N1358    N        0.00653    0.91926    0.63988    1.000
    N1359    N        0.04586    0.89625    0.68602    1.000
    N1360    N        0.98916    0.93669    0.70831    1.000
    N1361    N        0.19128    0.94623    0.65354    1.000
    Si1362   Si       0.12563    0.89765    0.71443    1.000
    Si1363   Si       0.14712    0.94028    0.66676    1.000
    N1364    N        0.12641    0.93544    0.74159    1.000
    N1365    N        0.22023    0.91816    0.70601    1.000
    Si1366   Si       0.20599    0.90450    0.66744    1.000
    N1367    N        0.16371    0.90258    0.68894    1.000
    Si1368   Si       0.22289    0.94912    0.73441    1.000
    Si1369   Si       0.09640    0.93008    0.81641    1.000
    Si1370   Si       0.03760    0.90797    0.76980    1.000
    N1371    N        0.06273    0.90366    0.80471    1.000
    N1372    N        0.00650    0.93688    0.77971    1.000
    N1373    N        0.08913    0.93763    0.85967    1.000
    Si1374   Si       0.15348    0.91671    0.77032    1.000
    Si1375   Si       0.17246    0.92492    0.83628    1.000
    N1376    N        0.13950    0.92497    0.80920    1.000
    N1377    N        0.19636    0.92277    0.76151    1.000
    Si1378   Si       0.22747    0.92960    0.79219    1.000
    N1379    N        0.20688    0.94685    0.82549    1.000
    N1380    N        0.15844    0.93932    0.87480    1.000
    N1381    N        0.06443    0.89884    0.93073    1.000
    Si1382   Si       0.09294    0.91639    0.95820    1.000
    N1383    N        0.07448    0.94018    0.99007    1.000
    N1384    N        0.99126    0.91465    0.92334    1.000
    N1385    N        0.11365    0.94681    0.92890    1.000
    Si1386   Si       0.11893    0.92834    0.88931    1.000
    Si1387   Si       0.19457    0.92189    0.94584    1.000
    N1388    N        0.18209    0.91379    0.98600    1.000
    N1389    N        0.23934    0.92015    0.93968    1.000
    Si1390   Si       0.09130    0.97825    0.10661    1.000
    Si1391   Si       0.08275    0.98075    0.00420    1.000
    N1392    N        0.05842    0.95062    0.11742    1.000
    N1393    N        0.12108    0.98086    0.02600    1.000
    N1394    N        0.12788    0.95951    0.09370    1.000
    Si1395   Si       0.21904    0.00599    0.03105    1.000
    N1396    N        0.02893    0.00619    0.15203    1.000
    Si1397   Si       0.10413    0.96654    0.17813    1.000
    N1398    N        0.09716    0.99583    0.14767    1.000
    Si1399   Si       0.03730    0.96233    0.15422    1.000
    N1400    N        0.06400    0.95860    0.18918    1.000
    N1401    N        0.21503    0.99016    0.19339    1.000
    Si1402   Si       0.21953    0.95986    0.22583    1.000
    N1403    N        0.13034    0.98154    0.20932    1.000
    N1404    N        0.17429    0.97159    0.15017    1.000
    Si1405   Si       0.17035    0.97438    0.19242    1.000
    Si1406   Si       0.21748    0.97964    0.15016    1.000
    Si1407   Si       0.05590    0.97912    0.27903    1.000
    Si1408   Si       0.07097    0.98464    0.35696    1.000
    N1409    N        0.07718    0.99322    0.31511    1.000
    N1410    N        0.03862    0.95619    0.36112    1.000
    N1411    N        0.02379    0.95455    0.29202    1.000
    N1412    N        0.07968    0.95357    0.25346    1.000
    N1413    N        0.21608    0.98219    0.33149    1.000
    N1414    N        0.21009    0.98065    0.26245    1.000
    N1415    N        0.12901    0.99706    0.26972    1.000
    Si1416   Si       0.21313    0.95462    0.36499    1.000
    Si1417   Si       0.23657    0.96842    0.29477    1.000
    Si1418   Si       0.14449    0.98628    0.37253    1.000
    Si1419   Si       0.12173    0.95969    0.24936    1.000
    N1420    N        0.17051    0.94984    0.36789    1.000
    N1421    N        0.10430    0.96879    0.37896    1.000
    N1422    N        0.02599    0.99412    0.41903    1.000
    Si1423   Si       0.03071    0.95243    0.40233    1.000
    Si1424   Si       0.14872    0.95348    0.47773    1.000
    N1425    N        0.22145    0.00493    0.45543    1.000
    N1426    N        0.23669    0.97176    0.39775    1.000
    Si1427   Si       0.22376    0.97275    0.48569    1.000
    Si1428   Si       0.12598    0.00682    0.43492    1.000
    N1429    N        0.12922    0.96496    0.44128    1.000
    N1430    N        0.05863    0.97896    0.52530    1.000
    Si1431   Si       0.01664    0.96453    0.50930    1.000
    N1432    N        0.06314    0.95973    0.60020    1.000
    Si1433   Si       0.06956    0.00273    0.60364    1.000
    N1434    N        0.99006    0.99828    0.52010    1.000
    Si1435   Si       0.09132    0.95005    0.52435    1.000
    N1436    N        0.12928    0.97003    0.51279    1.000
    N1437    N        0.22854    0.99555    0.52309    1.000
    N1438    N        0.20282    0.95509    0.59132    1.000
    Si1439   Si       0.99816    0.00002    0.62403    1.000
    N1440    N        0.08178    0.99827    0.74091    1.000
    Si1441   Si       0.00482    0.97239    0.69190    1.000
    N1442    N        0.01442    0.99493    0.73011    1.000
    N1443    N        0.04914    0.97107    0.68149    1.000
    N1444    N        0.09925    0.00223    0.63749    1.000
    Si1445   Si       0.06513    0.00756    0.66571    1.000
    N1446    N        0.14724    0.98361    0.68504    1.000
    Si1447   Si       0.20305    0.97765    0.62812    1.000
    Si1448   Si       0.17200    0.00327    0.71916    1.000
    N1449    N        0.21053    0.98567    0.71600    1.000
    N1450    N        0.17472    0.01044    0.62572    1.000
    N1451    N        0.09326    0.96876    0.79477    1.000
    Si1452   Si       0.01169    0.96841    0.81063    1.000
    N1453    N        0.03512    0.99884    0.78948    1.000
    Si1454   Si       0.06159    0.97107    0.86612    1.000
    N1455    N        0.02205    0.96006    0.85341    1.000
    Si1456   Si       0.04639    0.97510    0.75036    1.000
    Si1457   Si       0.11646    0.97419    0.75649    1.000
    Si1458   Si       0.22378    0.98133    0.84465    1.000
    N1459    N        0.14947    0.00122    0.75774    1.000
    Si1460   Si       0.99165    0.97560    0.99145    1.000
    Si1461   Si       0.04874    0.00082    0.94413    1.000
    N1462    N        0.01627    0.97465    0.95357    1.000
    N1463    N        0.06823    0.99258    0.90474    1.000
    N1464    N        0.08836    0.99952    0.96485    1.000
    Si1465   Si       0.10965    0.99240    0.92540    1.000
    Si1466   Si       0.21103    0.99283    0.95429    1.000
    Si1467   Si       0.17263    0.97246    0.89693    1.000
    N1468    N        0.18593    0.96266    0.93712    1.000
    N1469    N        0.21007    0.98990    0.88555    1.000
    N1470    N        0.14151    0.00295    0.89747    1.000
    N1471    N        0.21285    0.97954    0.99520    1.000
    N1472    N        0.28104    0.03909    0.08700    1.000
    Si1473   Si       0.32394    0.02860    0.08811    1.000
    Si1474   Si       0.32798    0.03325    0.01275    1.000
    N1475    N        0.24127    0.03629    0.00708    1.000
    N1476    N        0.34522    0.06572    0.07769    1.000
    N1477    N        0.40923    0.04585    0.07212    1.000
    N1478    N        0.45384    0.04579    0.01955    1.000
    Si1479   Si       0.42761    0.01466    0.09768    1.000
    N1480    N        0.24315    0.03401    0.23371    1.000
    N1481    N        0.34394    0.02468    0.18722    1.000
    N1482    N        0.27975    0.01510    0.17547    1.000
    Si1483   Si       0.30653    0.03139    0.20688    1.000
    N1484    N        0.33619    0.01042    0.12574    1.000
    Si1485   Si       0.37062    0.02396    0.15009    1.000
    Si1486   Si       0.37393    0.03069    0.21960    1.000
    N1487    N        0.40713    0.04388    0.19209    1.000
    Si1488   Si       0.43280    0.01750    0.21835    1.000
    N1489    N        0.37584    0.06639    0.14020    1.000
    Si1490   Si       0.29934    0.01891    0.27783    1.000
    N1491    N        0.28678    0.06064    0.28185    1.000
    N1492    N        0.33723    0.01152    0.29912    1.000
    N1493    N        0.27920    0.06325    0.35069    1.000
    Si1494   Si       0.36444    0.04673    0.29392    1.000
    N1495    N        0.36838    0.06043    0.25027    1.000
    Si1496   Si       0.48276    0.02214    0.34777    1.000
    N1497    N        0.40367    0.03299    0.30592    1.000
    Si1498   Si       0.44405    0.04320    0.29140    1.000
    N1499    N        0.44401    0.02304    0.36618    1.000
    N1500    N        0.44371    0.04707    0.24962    1.000
    N1501    N        0.47195    0.01308    0.30742    1.000
    N1502    N        0.37279    0.01281    0.36255    1.000
    Si1503   Si       0.41088    0.00750    0.34011    1.000
    Si1504   Si       0.29461    0.03581    0.38139    1.000
    N1505    N        0.25947    0.03753    0.41081    1.000
    Si1506   Si       0.32538    0.02621    0.44089    1.000
    N1507    N        0.31134    0.04978    0.47323    1.000
    N1508    N        0.32725    0.05165    0.40390    1.000
    N1509    N        0.36678    0.01532    0.43648    1.000
    Si1510   Si       0.44714    0.01997    0.41003    1.000
    N1511    N        0.41940    0.05101    0.41953    1.000
    N1512    N        0.42284    0.02612    0.48389    1.000
    Si1513   Si       0.37832    0.03899    0.40012    1.000
    N1514    N        0.49250    0.03885    0.48241    1.000
    N1515    N        0.28037    0.04389    0.53928    1.000
    N1516    N        0.28277    0.03592    0.60505    1.000
    Si1517   Si       0.31574    0.03834    0.51434    1.000
    Si1518   Si       0.26139    0.05962    0.57587    1.000
    N1519    N        0.35333    0.01640    0.52611    1.000
    N1520    N        0.35754    0.04473    0.61158    1.000
    Si1521   Si       0.39522    0.02654    0.51752    1.000
    N1522    N        0.42335    0.03034    0.59816    1.000
    N1523    N        0.46059    0.04030    0.53897    1.000
    Si1524   Si       0.38560    0.01317    0.61116    1.000
    Si1525   Si       0.44143    0.06822    0.61320    1.000
    Si1526   Si       0.45191    0.05352    0.49755    1.000
    Si1527   Si       0.31636    0.05512    0.62626    1.000
    Si1528   Si       0.27706    0.06551    0.68345    1.000
    N1529    N        0.30524    0.03694    0.66530    1.000
    N1530    N        0.24708    0.04005    0.69836    1.000
    Si1531   Si       0.47861    0.05199    0.68486    1.000
    N1532    N        0.44857    0.06378    0.65738    1.000
    N1533    N        0.46614    0.03433    0.72238    1.000
    Si1534   Si       0.44279    0.06648    0.74156    1.000
    N1535    N        0.38414    0.04962    0.68448    1.000
    Si1536   Si       0.38590    0.00636    0.68460    1.000
    N1537    N        0.29255    0.05407    0.83110    1.000
    Si1538   Si       0.31619    0.03224    0.80168    1.000
    N1539    N        0.29349    0.02532    0.76572    1.000
    Si1540   Si       0.25655    0.03644    0.84524    1.000
    N1541    N        0.34921    0.05878    0.79345    1.000
    N1542    N        0.35660    0.04775    0.86624    1.000
    Si1543   Si       0.28030    0.06623    0.75647    1.000
    N1544    N        0.47946    0.02574    0.81399    1.000
    N1545    N        0.41013    0.04675    0.76046    1.000
    Si1546   Si       0.39212    0.05264    0.80024    1.000
    N1547    N        0.40315    0.01775    0.82209    1.000
    Si1548   Si       0.26506    0.02573    0.97199    1.000
    N1549    N        0.25016    0.04041    0.89112    1.000
    N1550    N        0.30728    0.01390    0.98004    1.000
    N1551    N        0.27238    0.06493    0.95491    1.000
    N1552    N        0.47587    0.01242    0.89237    1.000
    Si1553   Si       0.38761    0.04642    0.89838    1.000
    Si1554   Si       0.44741    0.02315    0.98092    1.000
    N1555    N        0.42996    0.05676    0.95882    1.000
    N1556    N        0.40150    0.00702    0.88947    1.000
    N1557    N        0.36672    0.06189    0.93373    1.000
    N1558    N        0.36895    0.03310    0.99623    1.000
    Si1559   Si       0.49129    0.05143    0.87778    1.000
    Si1560   Si       0.32717    0.09620    0.05246    1.000
    N1561    N        0.29322    0.10587    0.07747    1.000
    Si1562   Si       0.26204    0.07684    0.08210    1.000
    N1563    N        0.25511    0.11060    0.00731    1.000
    N1564    N        0.31215    0.07321    0.01752    1.000
    Si1565   Si       0.28750    0.11476    0.12029    1.000
    N1566    N        0.39607    0.09300    0.00916    1.000
    Si1567   Si       0.43820    0.11383    0.10111    1.000
    N1568    N        0.39206    0.11311    0.09919    1.000
    N1569    N        0.44409    0.10324    0.05849    1.000
    Si1570   Si       0.38477    0.07037    0.09905    1.000
    Si1571   Si       0.48384    0.12315    0.05550    1.000
    Si1572   Si       0.48433    0.07227    0.11173    1.000
    Si1573   Si       0.42313    0.07289    0.03742    1.000
    N1574    N        0.25098    0.08709    0.12303    1.000
    N1575    N        0.34965    0.10420    0.20257    1.000
    Si1576   Si       0.30890    0.10370    0.18835    1.000
    N1577    N        0.31871    0.10287    0.14528    1.000
    N1578    N        0.29167    0.07200    0.21203    1.000
    Si1579   Si       0.26577    0.07191    0.24631    1.000
    N1580    N        0.41038    0.11200    0.17166    1.000
    N1581    N        0.46619    0.07492    0.19197    1.000
    Si1582   Si       0.36513    0.10873    0.15980    1.000
    Si1583   Si       0.37614    0.10279    0.23874    1.000
    N1584    N        0.44241    0.07736    0.12499    1.000
    N1585    N        0.41894    0.11183    0.23359    1.000
    Si1586   Si       0.42810    0.07349    0.16729    1.000
    Si1587   Si       0.45368    0.08643    0.23200    1.000
    Si1588   Si       0.29957    0.08352    0.31739    1.000
    N1589    N        0.34393    0.07649    0.31793    1.000
    N1590    N        0.33114    0.11688    0.36793    1.000
    Si1591   Si       0.36591    0.09718    0.34767    1.000
    N1592    N        0.40054    0.11497    0.32784    1.000
    N1593    N        0.46203    0.07619    0.31399    1.000
    Si1594   Si       0.44242    0.10989    0.33490    1.000
    N1595    N        0.34216    0.10583    0.44558    1.000
    Si1596   Si       0.31758    0.09200    0.48077    1.000
    Si1597   Si       0.33881    0.09447    0.40415    1.000
    N1598    N        0.25143    0.09605    0.45949    1.000
    N1599    N        0.24459    0.09999    0.39343    1.000
    Si1600   Si       0.48573    0.11717    0.40068    1.000
    N1601    N        0.45714    0.09652    0.49158    1.000
    N1602    N        0.45091    0.10449    0.37749    1.000
    Si1603   Si       0.41794    0.09153    0.40367    1.000
    N1604    N        0.37925    0.08471    0.38738    1.000
    N1605    N        0.33180    0.08177    0.52114    1.000
    N1606    N        0.25154    0.10096    0.59003    1.000
    N1607    N        0.32869    0.09772    0.61855    1.000
    Si1608   Si       0.36789    0.08854    0.60358    1.000
    Si1609   Si       0.37056    0.09954    0.52730    1.000
    N1610    N        0.37306    0.11311    0.56609    1.000
    N1611    N        0.45267    0.09899    0.58007    1.000
    Si1612   Si       0.48154    0.07186    0.56342    1.000
    N1613    N        0.39931    0.06947    0.52436    1.000
    Si1614   Si       0.48653    0.12080    0.50889    1.000
    N1615    N        0.27183    0.09481    0.65196    1.000
    N1616    N        0.35824    0.10826    0.73783    1.000
    Si1617   Si       0.32063    0.11644    0.71690    1.000
    N1618    N        0.29759    0.07978    0.71845    1.000
    Si1619   Si       0.30061    0.12549    0.63805    1.000
    N1620    N        0.40596    0.09461    0.62604    1.000
    N1621    N        0.42918    0.09722    0.71130    1.000
    Si1622   Si       0.46440    0.11963    0.69540    1.000
    Si1623   Si       0.40810    0.08453    0.67163    1.000
    N1624    N        0.29624    0.09967    0.77967    1.000
    Si1625   Si       0.26933    0.09925    0.81959    1.000
    Si1626   Si       0.34015    0.09838    0.77886    1.000
    N1627    N        0.30488    0.11477    0.84201    1.000
    Si1628   Si       0.32287    0.07579    0.85662    1.000
    N1629    N        0.41192    0.08686    0.81684    1.000
    N1630    N        0.47046    0.08641    0.76865    1.000
    Si1631   Si       0.43116    0.09161    0.85547    1.000
    N1632    N        0.47107    0.07883    0.85009    1.000
    Si1633   Si       0.48177    0.06905    0.80753    1.000
    Si1634   Si       0.26672    0.07500    0.91174    1.000
    Si1635   Si       0.34104    0.09315    0.92308    1.000
    N1636    N        0.32080    0.10774    0.95874    1.000
    N1637    N        0.30619    0.08123    0.89707    1.000
    Si1638   Si       0.28924    0.09297    0.98574    1.000
    N1639    N        0.36410    0.12553    0.90525    1.000
    N1640    N        0.43348    0.12163    0.92750    1.000
    Si1641   Si       0.44827    0.07978    0.92647    1.000
    N1642    N        0.42173    0.07043    0.89205    1.000
    N1643    N        0.48903    0.07101    0.91685    1.000
    Si1644   Si       0.38891    0.06586    0.97432    1.000
    Si1645   Si       0.32640    0.16912    0.03363    1.000
    N1646    N        0.34718    0.13260    0.04059    1.000
    N1647    N        0.30047    0.15718    0.00058    1.000
    Si1648   Si       0.25638    0.15503    0.00127    1.000
    N1649    N        0.23725    0.17736    0.03285    1.000
    Si1650   Si       0.44537    0.17917    0.01197    1.000
    Si1651   Si       0.38309    0.13410    0.01452    1.000
    N1652    N        0.48051    0.16000    0.03176    1.000
    N1653    N        0.40913    0.16570    0.03340    1.000
    Si1654   Si       0.39027    0.15448    0.11641    1.000
    N1655    N        0.27818    0.15851    0.12573    1.000
    N1656    N        0.28020    0.13558    0.18816    1.000
    Si1657   Si       0.25800    0.16360    0.16176    1.000
    Si1658   Si       0.29366    0.17020    0.21213    1.000
    N1659    N        0.43437    0.15436    0.11805    1.000
    N1660    N        0.46028    0.16156    0.18505    1.000
    N1661    N        0.36622    0.15267    0.15387    1.000
    Si1662   Si       0.42432    0.14152    0.20052    1.000
    Si1663   Si       0.46464    0.17291    0.14358    1.000
    N1664    N        0.40090    0.17554    0.21586    1.000
    Si1665   Si       0.37054    0.18559    0.18374    1.000
    Si1666   Si       0.27838    0.15772    0.29099    1.000
    Si1667   Si       0.31761    0.15076    0.34288    1.000
    N1668    N        0.35730    0.16836    0.32877    1.000
    N1669    N        0.29917    0.16698    0.25482    1.000
    N1670    N        0.24948    0.16291    0.36354    1.000
    N1671    N        0.35995    0.13623    0.26352    1.000
    Si1672   Si       0.34304    0.17361    0.24801    1.000
    N1673    N        0.29679    0.12676    0.31183    1.000
    N1674    N        0.47164    0.13740    0.31614    1.000
    Si1675   Si       0.38116    0.14554    0.30141    1.000
    N1676    N        0.41469    0.17038    0.29014    1.000
    N1677    N        0.42897    0.16952    0.36796    1.000
    Si1678   Si       0.48463    0.17159    0.28996    1.000
    N1679    N        0.46701    0.17886    0.24969    1.000
    Si1680   Si       0.26597    0.13768    0.46636    1.000
    Si1681   Si       0.31380    0.17722    0.41910    1.000
    N1682    N        0.27896    0.15081    0.42593    1.000
    N1683    N        0.35405    0.17223    0.43588    1.000
    N1684    N        0.30011    0.13311    0.49151    1.000
    Si1685   Si       0.24424    0.14234    0.39976    1.000
    N1686    N        0.31532    0.18219    0.37580    1.000
    N1687    N        0.47585    0.15584    0.42395    1.000
    Si1688   Si       0.43323    0.16209    0.41274    1.000
    N1689    N        0.41042    0.12748    0.42906    1.000
    Si1690   Si       0.37272    0.13623    0.45514    1.000
    N1691    N        0.32453    0.15796    0.55334    1.000
    N1692    N        0.25116    0.17244    0.55353    1.000
    Si1693   Si       0.32883    0.15824    0.50887    1.000
    N1694    N        0.28810    0.16230    0.61812    1.000
    Si1695   Si       0.29088    0.17770    0.57525    1.000
    Si1696   Si       0.36035    0.15146    0.57782    1.000
    Si1697   Si       0.23800    0.13266    0.56460    1.000
    N1698    N        0.46711    0.15031    0.53554    1.000
    N1699    N        0.42914    0.16132    0.60112    1.000
    Si1700   Si       0.46195    0.14161    0.57780    1.000
    N1701    N        0.36559    0.15762    0.61930    1.000
    N1702    N        0.36732    0.13453    0.49944    1.000
    N1703    N        0.32078    0.13588    0.67550    1.000
    N1704    N        0.30388    0.15164    0.73521    1.000
    Si1705   Si       0.35748    0.15384    0.66193    1.000
    N1706    N        0.27228    0.18421    0.68483    1.000
    Si1707   Si       0.30975    0.17677    0.70064    1.000
    N1708    N        0.45871    0.13807    0.65509    1.000
    N1709    N        0.40113    0.16612    0.73203    1.000
    Si1710   Si       0.41716    0.13954    0.63952    1.000
    N1711    N        0.39031    0.12788    0.67661    1.000
    N1712    N        0.47134    0.14742    0.72744    1.000
    Si1713   Si       0.39464    0.12437    0.72017    1.000
    Si1714   Si       0.32529    0.15089    0.83106    1.000
    Si1715   Si       0.27941    0.14774    0.77188    1.000
    N1716    N        0.30290    0.17208    0.80094    1.000
    N1717    N        0.32996    0.17806    0.86677    1.000
    N1718    N        0.24788    0.13419    0.80502    1.000
    N1719    N        0.24625    0.16973    0.75418    1.000
    N1720    N        0.35651    0.12720    0.80840    1.000
    Si1721   Si       0.43207    0.17057    0.84147    1.000
    N1722    N        0.42015    0.15957    0.80083    1.000
    N1723    N        0.41661    0.13360    0.85979    1.000
    N1724    N        0.47542    0.17389    0.84189    1.000
    Si1725   Si       0.39692    0.12747    0.81601    1.000
    N1726    N        0.24480    0.17651    0.91190    1.000
    Si1727   Si       0.34775    0.16607    0.90264    1.000
    Si1728   Si       0.32737    0.14874    0.96997    1.000
    N1729    N        0.31847    0.17225    0.93492    1.000
    N1730    N        0.39031    0.18077    0.91001    1.000
    N1731    N        0.47505    0.17680    0.91327    1.000
    N1732    N        0.43532    0.17568    0.96931    1.000
    Si1733   Si       0.39309    0.18238    0.95590    1.000
    N1734    N        0.36992    0.15282    0.97951    1.000
    Si1735   Si       0.46073    0.15056    0.94473    1.000
    Si1736   Si       0.40469    0.13899    0.90184    1.000
    N1737    N        0.48922    0.12767    0.96612    1.000
    Si1738   Si       0.26297    0.20804    0.04998    1.000
    N1739    N        0.35334    0.20317    0.02868    1.000
    N1740    N        0.25753    0.22055    0.09276    1.000
    Si1741   Si       0.28959    0.19340    0.10387    1.000
    Si1742   Si       0.36056    0.22144    0.11656    1.000
    Si1743   Si       0.35314    0.23368    0.99923    1.000
    N1744    N        0.26516    0.24441    0.02606    1.000
    N1745    N        0.29762    0.18328    0.06370    1.000
    Si1746   Si       0.48415    0.23620    0.11087    1.000
    N1747    N        0.45894    0.22135    0.01592    1.000
    N1748    N        0.41105    0.22890    0.06217    1.000
    Si1749   Si       0.45380    0.23128    0.05737    1.000
    Si1750   Si       0.38696    0.19292    0.05425    1.000
    N1751    N        0.37347    0.18683    0.09502    1.000
    N1752    N        0.31696    0.21991    0.12631    1.000
    N1753    N        0.26620    0.19618    0.19239    1.000
    Si1754   Si       0.24564    0.22837    0.21124    1.000
    N1755    N        0.33403    0.18476    0.20654    1.000
    N1756    N        0.38305    0.21592    0.15558    1.000
    Si1757   Si       0.42054    0.23679    0.15516    1.000
    N1758    N        0.45386    0.21682    0.13551    1.000
    N1759    N        0.43762    0.24268    0.19418    1.000
    Si1760   Si       0.31696    0.21914    0.29819    1.000
    Si1761   Si       0.27648    0.19608    0.35948    1.000
    N1762    N        0.35375    0.20764    0.27412    1.000
    Si1763   Si       0.35283    0.20287    0.35627    1.000
    N1764    N        0.29159    0.19065    0.31795    1.000
    N1765    N        0.33620    0.23723    0.33339    1.000
    N1766    N        0.46712    0.20503    0.31241    1.000
    N1767    N        0.40509    0.22450    0.32730    1.000
    N1768    N        0.41715    0.23191    0.25999    1.000
    Si1769   Si       0.38727    0.23286    0.29033    1.000
    Si1770   Si       0.42955    0.18785    0.32715    1.000
    Si1771   Si       0.42474    0.18869    0.25179    1.000
    Si1772   Si       0.47682    0.24023    0.33700    1.000
    N1773    N        0.26452    0.23442    0.37672    1.000
    Si1774   Si       0.32065    0.22805    0.47213    1.000
    N1775    N        0.30205    0.21573    0.43315    1.000
    N1776    N        0.36114    0.23837    0.45433    1.000
    Si1777   Si       0.27189    0.24338    0.41976    1.000
    Si1778   Si       0.44516    0.21919    0.45991    1.000
    N1779    N        0.37530    0.21929    0.38788    1.000
    N1780    N        0.42029    0.19712    0.43474    1.000
    Si1781   Si       0.37641    0.20711    0.42854    1.000
    N1782    N        0.47507    0.19432    0.48154    1.000
    N1783    N        0.30367    0.21802    0.56678    1.000
    Si1784   Si       0.34281    0.21001    0.54633    1.000
    N1785    N        0.32848    0.20164    0.50594    1.000
    N1786    N        0.44472    0.21470    0.54689    1.000
    N1787    N        0.41017    0.23390    0.60437    1.000
    Si1788   Si       0.40614    0.23076    0.56138    1.000
    Si1789   Si       0.39741    0.19102    0.61193    1.000
    N1790    N        0.37746    0.19227    0.56889    1.000
    Si1791   Si       0.47395    0.19055    0.52485    1.000
    N1792    N        0.29311    0.23411    0.64120    1.000
    Si1793   Si       0.35268    0.23183    0.68667    1.000
    Si1794   Si       0.27228    0.19638    0.64246    1.000
    N1795    N        0.35131    0.18782    0.68606    1.000
    N1796    N        0.31378    0.24122    0.70402    1.000
    N1797    N        0.44626    0.20883    0.70273    1.000
    Si1798   Si       0.44616    0.21350    0.65728    1.000
    Si1799   Si       0.40197    0.19243    0.69872    1.000
    N1800    N        0.48591    0.20408    0.64299    1.000
    N1801    N        0.38690    0.23367    0.71332    1.000
    N1802    N        0.41018    0.18767    0.65610    1.000
    Si1803   Si       0.47714    0.18972    0.72659    1.000
    Si1804   Si       0.30748    0.21536    0.79488    1.000
    N1805    N        0.33576    0.23294    0.76547    1.000
    N1806    N        0.27375    0.23271    0.77396    1.000
    N1807    N        0.30965    0.23792    0.83276    1.000
    Si1808   Si       0.31721    0.21955    0.87075    1.000
    N1809    N        0.24136    0.24331    0.87452    1.000
    Si1810   Si       0.47746    0.23873    0.78410    1.000
    N1811    N        0.41171    0.20818    0.85034    1.000
    N1812    N        0.40022    0.22529    0.77674    1.000
    N1813    N        0.46269    0.20010    0.76920    1.000
    Si1814   Si       0.40972    0.23817    0.81621    1.000
    Si1815   Si       0.42186    0.18524    0.76726    1.000
    N1816    N        0.29354    0.22701    0.90748    1.000
    N1817    N        0.26287    0.20570    0.96902    1.000
    Si1818   Si       0.28177    0.19316    0.93130    1.000
    N1819    N        0.35537    0.23945    0.88189    1.000
    Si1820   Si       0.27570    0.24442    0.98249    1.000
    Si1821   Si       0.39384    0.22040    0.89031    1.000
    N1822    N        0.48295    0.23407    0.94607    1.000
    N1823    N        0.37847    0.22159    0.96679    1.000
    N1824    N        0.47495    0.23905    0.87362    1.000
    N1825    N        0.42111    0.24467    0.91465    1.000
    Si1826   Si       0.25007    0.28501    0.03757    1.000
    N1827    N        0.36397    0.26035    0.09759    1.000
    Si1828   Si       0.24295    0.25697    0.10976    1.000
    N1829    N        0.24394    0.28928    0.08172    1.000
    N1830    N        0.36604    0.26992    0.02219    1.000
    N1831    N        0.46431    0.26483    0.08384    1.000
    Si1832   Si       0.38466    0.26513    0.06045    1.000
    Si1833   Si       0.25843    0.29482    0.17918    1.000
    Si1834   Si       0.29704    0.27486    0.24049    1.000
    Si1835   Si       0.30598    0.25603    0.14729    1.000
    N1836    N        0.26941    0.27961    0.13868    1.000
    N1837    N        0.33818    0.28273    0.15754    1.000
    N1838    N        0.27127    0.26239    0.20586    1.000
    N1839    N        0.33449    0.29319    0.22769    1.000
    N1840    N        0.47441    0.26952    0.23508    1.000
    N1841    N        0.41035    0.27836    0.14096    1.000
    Si1842   Si       0.37052    0.28877    0.12876    1.000
    N1843    N        0.40409    0.29689    0.23320    1.000
    N1844    N        0.47621    0.27968    0.15819    1.000
    Si1845   Si       0.48168    0.25259    0.19358    1.000
    Si1846   Si       0.43237    0.26202    0.23262    1.000
    Si1847   Si       0.44275    0.30543    0.14708    1.000
    Si1848   Si       0.26489    0.27729    0.29350    1.000
    N1849    N        0.27504    0.29360    0.33453    1.000
    Si1850   Si       0.35286    0.27678    0.33145    1.000
    N1851    N        0.29580    0.24942    0.27520    1.000
    Si1852   Si       0.25796    0.27860    0.37096    1.000
    N1853    N        0.37187    0.27396    0.29151    1.000
    N1854    N        0.38236    0.28128    0.36256    1.000
    N1855    N        0.47455    0.27567    0.30986    1.000
    Si1856   Si       0.36738    0.29922    0.25564    1.000
    Si1857   Si       0.40576    0.24454    0.36601    1.000
    N1858    N        0.44845    0.25201    0.37299    1.000
    Si1859   Si       0.24218    0.25322    0.48304    1.000
    N1860    N        0.28863    0.25678    0.48213    1.000
    N1861    N        0.28261    0.28512    0.40760    1.000
    N1862    N        0.47458    0.24383    0.43802    1.000
    N1863    N        0.38164    0.29859    0.48711    1.000
    N1864    N        0.41170    0.28097    0.42337    1.000
    Si1865   Si       0.45313    0.27247    0.41056    1.000
    N1866    N        0.42306    0.24729    0.48412    1.000
    Si1867   Si       0.39217    0.26740    0.45910    1.000
    N1868    N        0.31247    0.28112    0.59193    1.000
    N1869    N        0.26129    0.27786    0.53561    1.000
    Si1870   Si       0.28843    0.29455    0.50465    1.000
    Si1871   Si       0.28258    0.25627    0.57029    1.000
    N1872    N        0.32476    0.29642    0.52473    1.000
    N1873    N        0.24237    0.24942    0.58633    1.000
    Si1874   Si       0.36779    0.28473    0.52628    1.000
    N1875    N        0.42945    0.27799    0.55352    1.000
    Si1876   Si       0.44055    0.27706    0.50975    1.000
    N1877    N        0.48006    0.26599    0.51975    1.000
    Si1878   Si       0.46657    0.25070    0.55895    1.000
    N1879    N        0.37146    0.24505    0.54010    1.000
    N1880    N        0.40546    0.30390    0.62032    1.000
    N1881    N        0.26887    0.27947    0.72047    1.000
    Si1882   Si       0.32143    0.26359    0.63067    1.000
    Si1883   Si       0.28252    0.26067    0.68079    1.000
    N1884    N        0.30566    0.29197    0.66144    1.000
    N1885    N        0.36037    0.25548    0.65013    1.000
    Si1886   Si       0.29963    0.25595    0.74485    1.000
    N1887    N        0.23950    0.25609    0.66736    1.000
    N1888    N        0.43972    0.28139    0.73584    1.000
    N1889    N        0.37399    0.29297    0.74767    1.000
    N1890    N        0.43116    0.25362    0.66439    1.000
    Si1891   Si       0.42889    0.25037    0.70730    1.000
    Si1892   Si       0.48160    0.29560    0.73946    1.000
    Si1893   Si       0.40135    0.26291    0.63386    1.000
    Si1894   Si       0.29504    0.27866    0.81453    1.000
    N1895    N        0.30951    0.29026    0.77259    1.000
    N1896    N        0.25339    0.29109    0.82023    1.000
    Si1897   Si       0.35127    0.27669    0.86075    1.000
    N1898    N        0.31669    0.29949    0.84720    1.000
    N1899    N        0.44965    0.25564    0.81163    1.000
    N1900    N        0.38521    0.27115    0.83118    1.000
    Si1901   Si       0.47088    0.27280    0.84637    1.000
    Si1902   Si       0.37433    0.24960    0.75211    1.000
    N1903    N        0.44271    0.29690    0.86772    1.000
    N1904    N        0.30750    0.29198    0.91441    1.000
    N1905    N        0.25867    0.27051    0.95366    1.000
    Si1906   Si       0.27084    0.26480    0.91032    1.000
    Si1907   Si       0.33140    0.28704    0.94970    1.000
    N1908    N        0.31815    0.25262    0.97545    1.000
    N1909    N        0.25311    0.30239    0.88881    1.000
    Si1910   Si       0.40024    0.25500    0.95147    1.000
    Si1911   Si       0.47118    0.24977    0.98287    1.000
    N1912    N        0.48782    0.29275    0.91548    1.000
    N1913    N        0.37320    0.28807    0.94591    1.000
    N1914    N        0.43333    0.27021    0.97424    1.000
    Si1915   Si       0.46318    0.25575    0.91342    1.000
    N1916    N        0.34440    0.32714    0.04733    1.000
    N1917    N        0.29208    0.34007    0.08950    1.000
    Si1918   Si       0.30339    0.33920    0.04958    1.000
    Si1919   Si       0.26377    0.31656    0.11153    1.000
    N1920    N        0.28382    0.30792    0.02399    1.000
    Si1921   Si       0.35813    0.31141    0.00941    1.000
    N1922    N        0.37314    0.33094    0.11410    1.000
    Si1923   Si       0.38212    0.33302    0.07085    1.000
    N1924    N        0.45201    0.33041    0.11344    1.000
    Si1925   Si       0.45394    0.30711    0.07420    1.000
    N1926    N        0.49182    0.32066    0.05633    1.000
    N1927    N        0.41029    0.30152    0.06426    1.000
    N1928    N        0.39346    0.33255    0.99686    1.000
    N1929    N        0.23619    0.34108    0.13326    1.000
    N1930    N        0.28865    0.32790    0.18552    1.000
    Si1931   Si       0.33082    0.31575    0.18864    1.000
    N1932    N        0.36747    0.33838    0.18397    1.000
    Si1933   Si       0.36682    0.35980    0.14699    1.000
    Si1934   Si       0.47460    0.35548    0.18466    1.000
    Si1935   Si       0.40568    0.33283    0.20771    1.000
    N1936    N        0.43913    0.33055    0.18232    1.000
    Si1937   Si       0.29434    0.33126    0.33360    1.000
    Si1938   Si       0.27273    0.34755    0.26392    1.000
    N1939    N        0.33603    0.31639    0.32763    1.000
    N1940    N        0.27868    0.35950    0.30453    1.000
    N1941    N        0.26988    0.30491    0.26038    1.000
    N1942    N        0.36395    0.34061    0.27184    1.000
    Si1943   Si       0.37369    0.33384    0.31468    1.000
    N1944    N        0.41715    0.32630    0.31928    1.000
    Si1945   Si       0.45904    0.31632    0.31615    1.000
    N1946    N        0.46960    0.34219    0.34965    1.000
    N1947    N        0.47242    0.32810    0.27671    1.000
    N1948    N        0.30001    0.34488    0.37661    1.000
    N1949    N        0.35298    0.32663    0.40492    1.000
    N1950    N        0.31008    0.33920    0.45077    1.000
    Si1951   Si       0.30934    0.31865    0.41242    1.000
    Si1952   Si       0.40587    0.33459    0.48478    1.000
    Si1953   Si       0.46653    0.34640    0.39654    1.000
    N1954    N        0.42169    0.34510    0.39089    1.000
    N1955    N        0.47959    0.30669    0.40915    1.000
    N1956    N        0.44474    0.31532    0.48958    1.000
    Si1957   Si       0.47710    0.34356    0.47720    1.000
    Si1958   Si       0.39207    0.31023    0.39511    1.000
    N1959    N        0.30665    0.34626    0.57316    1.000
    Si1960   Si       0.32810    0.31152    0.56504    1.000
    N1961    N        0.27312    0.33512    0.50835    1.000
    N1962    N        0.43981    0.34645    0.57333    1.000
    N1963    N        0.37242    0.31430    0.55824    1.000
    Si1964   Si       0.41178    0.31123    0.57707    1.000
    Si1965   Si       0.46898    0.35541    0.60619    1.000
    N1966    N        0.48103    0.36414    0.51692    1.000
    Si1967   Si       0.24016    0.31154    0.72008    1.000
    Si1968   Si       0.32165    0.33113    0.67046    1.000
    N1969    N        0.32565    0.33940    0.71440    1.000
    N1970    N        0.35876    0.34087    0.65457    1.000
    N1971    N        0.29706    0.35793    0.64524    1.000
    N1972    N        0.23895    0.33304    0.68242    1.000
    Si1973   Si       0.40260    0.33389    0.65250    1.000
    N1974    N        0.47306    0.32974    0.64184    1.000
    Si1975   Si       0.41220    0.31430    0.73535    1.000
    N1976    N        0.42022    0.32522    0.69106    1.000
    Si1977   Si       0.46138    0.33754    0.68600    1.000
    N1978    N        0.35178    0.34737    0.77926    1.000
    N1979    N        0.24857    0.33819    0.75512    1.000
    Si1980   Si       0.33641    0.31581    0.75308    1.000
    N1981    N        0.24104    0.35637    0.82508    1.000
    N1982    N        0.41000    0.33512    0.82331    1.000
    N1983    N        0.42437    0.34723    0.76053    1.000
    Si1984   Si       0.39482    0.35766    0.78863    1.000
    Si1985   Si       0.46462    0.36060    0.77093    1.000
    N1986    N        0.47086    0.35743    0.81559    1.000
    Si1987   Si       0.43914    0.36161    0.84527    1.000
    Si1988   Si       0.40412    0.30372    0.85098    1.000
    Si1989   Si       0.29446    0.31708    0.87980    1.000
    Si1990   Si       0.28709    0.33611    0.98980    1.000
    N1991    N        0.24926    0.33789    0.96806    1.000
    N1992    N        0.32667    0.32385    0.97638    1.000
    N1993    N        0.28963    0.36001    0.87371    1.000
    Si1994   Si       0.38733    0.32204    0.92155    1.000
    N1995    N        0.47081    0.35530    0.87836    1.000
    N1996    N        0.37311    0.30682    0.88192    1.000
    N1997    N        0.46236    0.33762    0.99278    1.000
    N1998    N        0.42850    0.32241    0.93209    1.000
    Si1999   Si       0.42871    0.31386    0.97717    1.000
    Si2000   Si       0.45936    0.32293    0.90185    1.000
    N2001    N        0.37148    0.35979    0.93269    1.000
    N2002    N        0.32453    0.39743    0.07161    1.000
    Si2003   Si       0.32535    0.40374    0.02761    1.000
    Si2004   Si       0.30376    0.38039    0.10550    1.000
    Si2005   Si       0.26193    0.40118    0.01382    1.000
    N2006    N        0.26643    0.40186    0.11260    1.000
    N2007    N        0.29368    0.36998    0.01954    1.000
    N2008    N        0.35577    0.38685    0.99855    1.000
    N2009    N        0.44816    0.40417    0.09053    1.000
    N2010    N        0.39591    0.37222    0.05710    1.000
    Si2011   Si       0.39592    0.37523    0.01363    1.000
    Si2012   Si       0.46842    0.37317    0.11353    1.000
    Si2013   Si       0.40661    0.39612    0.09174    1.000
    N2014    N        0.25717    0.39365    0.17754    1.000
    N2015    N        0.29926    0.37043    0.23689    1.000
    N2016    N        0.32785    0.37503    0.14119    1.000
    N2017    N        0.35522    0.40343    0.23240    1.000
    Si2018   Si       0.31332    0.41079    0.24098    1.000
    Si2019   Si       0.27106    0.36380    0.20554    1.000
    N2020    N        0.39872    0.38655    0.13640    1.000
    Si2021   Si       0.43961    0.40041    0.23233    1.000
    N2022    N        0.47573    0.38228    0.21932    1.000
    N2023    N        0.47175    0.38738    0.15626    1.000
    N2024    N        0.41286    0.36717    0.23514    1.000
    Si2025   Si       0.29179    0.40105    0.31586    1.000
    N2026    N        0.32756    0.39474    0.33845    1.000
    Si2027   Si       0.36797    0.40338    0.33490    1.000
    Si2028   Si       0.37815    0.37876    0.25901    1.000
    N2029    N        0.38435    0.40726    0.29362    1.000
    N2030    N        0.42829    0.40232    0.34269    1.000
    N2031    N        0.45634    0.40324    0.27464    1.000
    Si2032   Si       0.48049    0.36785    0.26064    1.000
    N2033    N        0.37715    0.36252    0.34921    1.000
    Si2034   Si       0.42356    0.35821    0.34798    1.000
    Si2035   Si       0.29277    0.36747    0.48321    1.000
    N2036    N        0.33910    0.39199    0.40969    1.000
    N2037    N        0.33741    0.38553    0.48169    1.000
    N2038    N        0.26363    0.38733    0.45911    1.000
    Si2039   Si       0.33744    0.36502    0.37534    1.000
    Si2040   Si       0.34554    0.36206    0.44214    1.000
    N2041    N        0.38947    0.36070    0.45354    1.000
    Si2042   Si       0.47204    0.41772    0.41289    1.000
    N2043    N        0.48948    0.38416    0.38903    1.000
    Si2044   Si       0.42012    0.37147    0.42675    1.000
    N2045    N        0.42713    0.41249    0.41254    1.000
    Si2046   Si       0.37962    0.39452    0.49123    1.000
    N2047    N        0.46051    0.36486    0.44214    1.000
    N2048    N        0.29058    0.39318    0.52226    1.000
    N2049    N        0.27421    0.39751    0.58738    1.000
    Si2050   Si       0.30795    0.37390    0.60668    1.000
    N2051    N        0.34737    0.39419    0.60885    1.000
    Si2052   Si       0.32498    0.41682    0.51308    1.000
    Si2053   Si       0.27468    0.36595    0.55045    1.000
    N2054    N        0.36663    0.41437    0.52959    1.000
    N2055    N        0.44456    0.41392    0.55082    1.000
    Si2056   Si       0.44480    0.37192    0.53828    1.000
    N2057    N        0.41132    0.37179    0.51077    1.000
    Si2058   Si       0.32060    0.38313    0.71598    1.000
    N2059    N        0.34094    0.39968    0.68203    1.000
    N2060    N        0.27677    0.38628    0.70747    1.000
    Si2061   Si       0.26317    0.36979    0.67047    1.000
    Si2062   Si       0.24951    0.38027    0.74229    1.000
    Si2063   Si       0.36581    0.38506    0.64950    1.000
    N2064    N        0.46884    0.37945    0.69179    1.000
    N2065    N        0.47635    0.39753    0.62334    1.000
    Si2066   Si       0.44637    0.40249    0.65690    1.000
    N2067    N        0.41194    0.37624    0.64572    1.000
    Si2068   Si       0.27280    0.38081    0.83952    1.000
    Si2069   Si       0.34185    0.38765    0.78833    1.000
    N2070    N        0.30497    0.39119    0.80867    1.000
    N2071    N        0.25555    0.41389    0.77062    1.000
    N2072    N        0.25965    0.42362    0.83772    1.000
    N2073    N        0.33622    0.40506    0.74946    1.000
    N2074    N        0.38205    0.39790    0.80219    1.000
    N2075    N        0.45451    0.40559    0.85497    1.000
    N2076    N        0.48898    0.39323    0.76062    1.000
    N2077    N        0.30604    0.38425    0.94658    1.000
    Si2078   Si       0.30591    0.38745    0.90352    1.000
    N2079    N        0.34190    0.40452    0.88602    1.000
    N2080    N        0.24602    0.40450    0.97263    1.000
    Si2081   Si       0.34282    0.36538    0.96460    1.000
    N2082    N        0.27817    0.42032    0.90344    1.000
    Si2083   Si       0.27843    0.41994    0.94907    1.000
    Si2084   Si       0.44502    0.38954    0.89696    1.000
    N2085    N        0.40873    0.36404    0.87989    1.000
    Si2086   Si       0.37970    0.38926    0.90115    1.000
    N2087    N        0.41342    0.41714    0.91023    1.000
    N2088    N        0.43029    0.39691    0.99266    1.000
    N2089    N        0.47236    0.38832    0.93108    1.000
    Si2090   Si       0.46674    0.37966    0.97571    1.000
    Si2091   Si       0.27346    0.45235    0.11029    1.000
    N2092    N        0.31317    0.46220    0.09586    1.000
    Si2093   Si       0.34443    0.43765    0.07851    1.000
    N2094    N        0.35312    0.44097    0.03646    1.000
    N2095    N        0.29074    0.43208    0.01441    1.000
    N2096    N        0.24630    0.44984    0.07613    1.000
    Si2097   Si       0.36975    0.47458    0.01142    1.000
    N2098    N        0.37996    0.43016    0.09962    1.000
    Si2099   Si       0.46326    0.44066    0.07361    1.000
    N2100    N        0.44373    0.45215    0.03335    1.000
    Si2101   Si       0.32314    0.47950    0.22443    1.000
    N2102    N        0.26640    0.46473    0.15042    1.000
    Si2103   Si       0.26642    0.43570    0.18519    1.000
    N2104    N        0.29891    0.44152    0.21374    1.000
    N2105    N        0.36060    0.43770    0.16979    1.000
    N2106    N        0.36163    0.46575    0.23503    1.000
    N2107    N        0.42025    0.42765    0.20624    1.000
    Si2108   Si       0.39078    0.43126    0.14061    1.000
    N2109    N        0.42135    0.46028    0.14446    1.000
    Si2110   Si       0.44251    0.45879    0.18294    1.000
    Si2111   Si       0.37595    0.43333    0.20842    1.000
    N2112    N        0.48703    0.45275    0.17962    1.000
    Si2113   Si       0.26630    0.45992    0.35940    1.000
    Si2114   Si       0.30733    0.46893    0.29392    1.000
    N2115    N        0.35107    0.46815    0.30292    1.000
    N2116    N        0.30473    0.42535    0.28102    1.000
    N2117    N        0.26165    0.42095    0.33801    1.000
    Si2118   Si       0.37387    0.44728    0.27364    1.000
    N2119    N        0.47042    0.45753    0.31537    1.000
    N2120    N        0.41551    0.46193    0.27266    1.000
    N2121    N        0.41234    0.46273    0.33667    1.000
    Si2122   Si       0.42882    0.42892    0.30619    1.000
    N2123    N        0.37267    0.43006    0.36975    1.000
    Si2124   Si       0.41898    0.43349    0.37320    1.000
    N2125    N        0.29784    0.45007    0.38612    1.000
    Si2126   Si       0.35225    0.46096    0.46907    1.000
    Si2127   Si       0.33693    0.43394    0.39595    1.000
    N2128    N        0.34702    0.46484    0.42489    1.000
    N2129    N        0.31828    0.45543    0.49635    1.000
    Si2130   Si       0.48517    0.45534    0.47530    1.000
    N2131    N        0.41059    0.47741    0.40583    1.000
    Si2132   Si       0.41244    0.44568    0.43705    1.000
    N2133    N        0.44264    0.45879    0.46536    1.000
    N2134    N        0.38457    0.43177    0.46697    1.000
    N2135    N        0.46661    0.44998    0.38325    1.000
    N2136    N        0.31945    0.45354    0.58659    1.000
    N2137    N        0.27034    0.46237    0.54590    1.000
    Si2138   Si       0.35493    0.43719    0.60392    1.000
    Si2139   Si       0.27909    0.44213    0.58412    1.000
    N2140    N        0.24430    0.44792    0.60960    1.000
    N2141    N        0.39343    0.44882    0.58509    1.000
    Si2142   Si       0.47727    0.44091    0.54996    1.000
    N2143    N        0.41187    0.46863    0.52963    1.000
    Si2144   Si       0.40349    0.42893    0.54883    1.000
    N2145    N        0.46290    0.48044    0.56272    1.000
    Si2146   Si       0.33948    0.44252    0.67963    1.000
    N2147    N        0.30512    0.46723    0.67388    1.000
    N2148    N        0.35747    0.46200    0.71495    1.000
    Si2149   Si       0.26371    0.47714    0.74389    1.000
    N2150    N        0.36340    0.45092    0.64343    1.000
    N2151    N        0.42814    0.44140    0.66974    1.000
    Si2152   Si       0.45318    0.46164    0.69931    1.000
    Si2153   Si       0.40247    0.46857    0.64652    1.000
    N2154    N        0.42664    0.47718    0.72971    1.000
    N2155    N        0.48902    0.44281    0.71444    1.000
    N2156    N        0.31553    0.45675    0.82947    1.000
    N2157    N        0.29705    0.46142    0.76603    1.000
    Si2158   Si       0.28602    0.43284    0.80063    1.000
    Si2159   Si       0.33776    0.44896    0.75071    1.000
    Si2160   Si       0.33511    0.44371    0.86607    1.000
    N2161    N        0.36437    0.46249    0.78333    1.000
    N2162    N        0.37920    0.44828    0.85572    1.000
    Si2163   Si       0.38900    0.44069    0.81371    1.000
    N2164    N        0.42935    0.45472    0.80165    1.000
    Si2165   Si       0.45629    0.44335    0.83334    1.000
    N2166    N        0.44642    0.47041    0.86687    1.000
    Si2167   Si       0.25159    0.44377    0.87631    1.000
    N2168    N        0.28967    0.45936    0.95607    1.000
    N2169    N        0.33102    0.47837    0.89426    1.000
    Si2170   Si       0.29237    0.47203    0.99844    1.000
    N2171    N        0.39936    0.46616    0.98040    1.000
    N2172    N        0.47270    0.45507    0.97356    1.000
    Si2173   Si       0.43395    0.44099    0.99199    1.000
    Si2174   Si       0.41282    0.45211    0.88479    1.000
    Si2175   Si       0.31053    0.50574    0.10230    1.000
    N2176    N        0.26740    0.50745    0.09368    1.000
    N2177    N        0.26348    0.49716    0.01789    1.000
    N2178    N        0.32960    0.52879    0.07173    1.000
    Si2179   Si       0.24799    0.48886    0.05820    1.000
    N2180    N        0.33030    0.49172    0.00077    1.000
    N2181    N        0.38589    0.51161    0.10804    1.000
    N2182    N        0.39130    0.49807    0.04005    1.000
    Si2183   Si       0.43286    0.49263    0.04663    1.000
    Si2184   Si       0.37257    0.52328    0.06811    1.000
    N2185    N        0.44986    0.53242    0.03777    1.000
    Si2186   Si       0.42504    0.49476    0.11967    1.000
    N2187    N        0.44696    0.48113    0.08612    1.000
    N2188    N        0.33419    0.51775    0.20485    1.000
    N2189    N        0.26851    0.51776    0.19866    1.000
    N2190    N        0.32535    0.52202    0.13889    1.000
    Si2191   Si       0.30409    0.53316    0.17668    1.000
    Si2192   Si       0.27376    0.52389    0.24290    1.000
    Si2193   Si       0.43085    0.53069    0.18258    1.000
    Si2194   Si       0.49177    0.52862    0.12963    1.000
    N2195    N        0.39768    0.53366    0.24051    1.000
    N2196    N        0.43621    0.49251    0.20646    1.000
    N2197    N        0.45093    0.52076    0.14315    1.000
    Si2198   Si       0.26792    0.52409    0.31240    1.000
    N2199    N        0.30014    0.49339    0.25883    1.000
    N2200    N        0.35564    0.50096    0.36577    1.000
    N2201    N        0.28004    0.48528    0.32585    1.000
    N2202    N        0.24330    0.51760    0.27455    1.000
    Si2203   Si       0.33111    0.53595    0.35746    1.000
    Si2204   Si       0.37729    0.48807    0.33077    1.000
    Si2205   Si       0.44160    0.49319    0.31411    1.000
    N2206    N        0.45317    0.51614    0.35143    1.000
    N2207    N        0.45764    0.50908    0.27619    1.000
    N2208    N        0.39883    0.51953    0.31215    1.000
    Si2209   Si       0.42510    0.49859    0.24983    1.000
    N2210    N        0.25338    0.51766    0.42967    1.000
    N2211    N        0.31132    0.53254    0.46451    1.000
    Si2212   Si       0.35643    0.53467    0.46025    1.000
    N2213    N        0.24760    0.48634    0.49477    1.000
    Si2214   Si       0.44899    0.49197    0.38645    1.000
    N2215    N        0.47037    0.51785    0.41190    1.000
    Si2216   Si       0.37141    0.49633    0.40637    1.000
    N2217    N        0.43757    0.51945    0.48568    1.000
    N2218    N        0.37665    0.53811    0.42190    1.000
    N2219    N        0.37365    0.49700    0.47580    1.000
    Si2220   Si       0.41400    0.48261    0.48908    1.000
    Si2221   Si       0.46739    0.52567    0.45576    1.000
    N2222    N        0.30343    0.51739    0.53515    1.000
    N2223    N        0.28154    0.50912    0.60303    1.000
    Si2224   Si       0.31422    0.49537    0.57550    1.000
    N2225    N        0.35344    0.51104    0.58442    1.000
    Si2226   Si       0.28925    0.48301    0.51159    1.000
    N2227    N        0.41492    0.52673    0.55871    1.000
    Si2228   Si       0.48444    0.51583    0.57212    1.000
    Si2229   Si       0.41993    0.48653    0.57228    1.000
    N2230    N        0.42522    0.49317    0.61803    1.000
    Si2231   Si       0.28315    0.50394    0.67667    1.000
    N2232    N        0.27473    0.51208    0.71989    1.000
    N2233    N        0.24284    0.49425    0.66298    1.000
    N2234    N        0.30813    0.53702    0.66169    1.000
    N2235    N        0.38111    0.52915    0.73968    1.000
    Si2236   Si       0.38834    0.49417    0.71603    1.000
    Si2237   Si       0.45324    0.51639    0.64191    1.000
    N2238    N        0.39245    0.50670    0.67452    1.000
    N2239    N        0.47152    0.49101    0.67169    1.000
    N2240    N        0.31853    0.51944    0.78691    1.000
    Si2241   Si       0.27492    0.52147    0.79347    1.000
    N2242    N        0.27023    0.52599    0.83709    1.000
    Si2243   Si       0.33903    0.48831    0.80901    1.000
    N2244    N        0.24471    0.49326    0.78260    1.000
    N2245    N        0.36194    0.50963    0.83693    1.000
    N2246    N        0.43521    0.52598    0.78266    1.000
    Si2247   Si       0.47909    0.52957    0.78805    1.000
    N2248    N        0.48527    0.49443    0.76187    1.000
    Si2249   Si       0.44064    0.48285    0.77037    1.000
    N2250    N        0.48937    0.51758    0.82894    1.000
    N2251    N        0.26064    0.48684    0.89081    1.000
    N2252    N        0.29355    0.52282    0.94632    1.000
    Si2253   Si       0.32623    0.52788    0.97603    1.000
    Si2254   Si       0.29358    0.48620    0.92137    1.000
    Si2255   Si       0.36755    0.49736    0.87986    1.000
    N2256    N        0.36454    0.52686    0.95702    1.000
    N2257    N        0.43455    0.52120    0.95920    1.000
    N2258    N        0.40344    0.48689    0.90819    1.000
    N2259    N        0.48305    0.49462    0.92179    1.000
    Si2260   Si       0.46970    0.49699    0.96247    1.000
    Si2261   Si       0.39899    0.49926    0.95108    1.000
    Si2262   Si       0.44575    0.50053    0.89878    1.000
    N2263    N        0.27032    0.56193    0.05964    1.000
    Si2264   Si       0.31270    0.56089    0.04667    1.000
    Si2265   Si       0.25214    0.54939    0.09602    1.000
    N2266    N        0.31572    0.56002    0.00262    1.000
    Si2267   Si       0.24393    0.58533    0.03622    1.000
    N2268    N        0.35848    0.57985    0.12229    1.000
    N2269    N        0.38999    0.56369    0.05970    1.000
    Si2270   Si       0.42661    0.57131    0.03701    1.000
    Si2271   Si       0.48146    0.59450    0.09584    1.000
    N2272    N        0.45088    0.59551    0.06374    1.000
    Si2273   Si       0.48992    0.54158    0.05097    1.000
    N2274    N        0.25119    0.56626    0.13696    1.000
    N2275    N        0.30818    0.57587    0.17977    1.000
    Si2276   Si       0.28827    0.59395    0.22011    1.000
    Si2277   Si       0.27076    0.59620    0.15796    1.000
    Si2278   Si       0.36561    0.53844    0.13464    1.000
    N2279    N        0.39110    0.53787    0.17054    1.000
    N2280    N        0.36658    0.58464    0.22140    1.000
    Si2281   Si       0.48227    0.58105    0.17545    1.000
    N2282    N        0.44892    0.56612    0.19831    1.000
    Si2283   Si       0.46264    0.58597    0.23497    1.000
    Si2284   Si       0.36861    0.54247    0.20854    1.000
    Si2285   Si       0.32103    0.56935    0.28565    1.000
    N2286    N        0.24702    0.55848    0.33119    1.000
    N2287    N        0.30960    0.54212    0.31823    1.000
    N2288    N        0.29421    0.56253    0.24990    1.000
    Si2289   Si       0.26896    0.59798    0.33303    1.000
    N2290    N        0.36512    0.57280    0.28775    1.000
    N2291    N        0.36367    0.56409    0.35717    1.000
    Si2292   Si       0.39049    0.56053    0.32040    1.000
    N2293    N        0.42915    0.57848    0.32698    1.000
    Si2294   Si       0.45058    0.55947    0.36088    1.000
    Si2295   Si       0.39411    0.57476    0.25468    1.000
    N2296    N        0.48921    0.56639    0.26446    1.000
    N2297    N        0.30882    0.54647    0.39118    1.000
    N2298    N        0.27711    0.58595    0.43008    1.000
    Si2299   Si       0.28715    0.54358    0.42860    1.000
    Si2300   Si       0.31081    0.59090    0.39999    1.000
    N2301    N        0.35734    0.56216    0.49318    1.000
    N2302    N        0.46806    0.57069    0.45439    1.000
    N2303    N        0.42569    0.57837    0.39497    1.000
    Si2304   Si       0.38213    0.57280    0.39623    1.000
    N2305    N        0.30332    0.56798    0.58945    1.000
    N2306    N        0.29268    0.57959    0.52407    1.000
    Si2307   Si       0.28287    0.55050    0.55533    1.000
    Si2308   Si       0.31713    0.54758    0.50408    1.000
    Si2309   Si       0.33504    0.59337    0.58070    1.000
    N2310    N        0.24112    0.55120    0.56008    1.000
    N2311    N        0.36655    0.57579    0.55864    1.000
    N2312    N        0.42130    0.58001    0.51170    1.000
    Si2313   Si       0.37945    0.58964    0.51936    1.000
    Si2314   Si       0.48361    0.57973    0.61021    1.000
    N2315    N        0.47774    0.54190    0.53848    1.000
    Si2316   Si       0.38188    0.54242    0.58062    1.000
    N2317    N        0.39182    0.56013    0.62091    1.000
    Si2318   Si       0.43662    0.54030    0.52390    1.000
    N2319    N        0.47241    0.53895    0.60950    1.000
    Si2320   Si       0.28911    0.54623    0.62281    1.000
    N2321    N        0.25373    0.57425    0.70310    1.000
    Si2322   Si       0.32793    0.56844    0.68626    1.000
    Si2323   Si       0.27646    0.55352    0.73151    1.000
    N2324    N        0.25059    0.56730    0.63387    1.000
    N2325    N        0.31847    0.56090    0.72819    1.000
    Si2326   Si       0.26407    0.59449    0.66592    1.000
    N2327    N        0.44141    0.55185    0.66671    1.000
    N2328    N        0.37175    0.57621    0.68447    1.000
    Si2329   Si       0.47279    0.57701    0.68398    1.000
    Si2330   Si       0.39756    0.54856    0.66278    1.000
    N2331    N        0.33006    0.57505    0.84077    1.000
    Si2332   Si       0.29145    0.56116    0.85183    1.000
    N2333    N        0.26554    0.55789    0.77279    1.000
    N2334    N        0.26462    0.59141    0.83552    1.000
    Si2335   Si       0.34283    0.54269    0.76022    1.000
    Si2336   Si       0.36752    0.55243    0.84549    1.000
    Si2337   Si       0.26716    0.59582    0.79203    1.000
    Si2338   Si       0.34179    0.59883    0.80511    1.000
    N2339    N        0.36621    0.56454    0.79025    1.000
    N2340    N        0.48815    0.58808    0.84382    1.000
    N2341    N        0.40406    0.57534    0.85107    1.000
    Si2342   Si       0.40513    0.55448    0.77117    1.000
    N2343    N        0.42657    0.59328    0.77949    1.000
    Si2344   Si       0.48784    0.54737    0.86025    1.000
    N2345    N        0.28749    0.56402    0.89397    1.000
    Si2346   Si       0.26706    0.55514    0.93204    1.000
    N2347    N        0.36701    0.54085    0.88916    1.000
    N2348    N        0.28503    0.59217    0.94886    1.000
    N2349    N        0.34764    0.59594    0.92720    1.000
    Si2350   Si       0.36898    0.55721    0.92822    1.000
    N2351    N        0.42001    0.58693    0.99615    1.000
    Si2352   Si       0.42859    0.57863    0.88912    1.000
    N2353    N        0.47567    0.57590    0.95802    1.000
    N2354    N        0.40625    0.58012    0.92708    1.000
    Si2355   Si       0.43363    0.56497    0.96196    1.000
    N2356    N        0.45095    0.54127    0.88409    1.000
    Si2357   Si       0.31462    0.63577    0.04351    1.000
    N2358    N        0.26566    0.61492    0.01169    1.000
    N2359    N        0.33002    0.59932    0.06091    1.000
    N2360    N        0.28321    0.65251    0.07295    1.000
    N2361    N        0.32121    0.63669    0.99661    1.000
    Si2362   Si       0.24071    0.65035    0.06615    1.000
    Si2363   Si       0.36827    0.59285    0.08158    1.000
    N2364    N        0.45115    0.65433    0.09774    1.000
    N2365    N        0.39042    0.63240    0.07791    1.000
    Si2366   Si       0.43102    0.63458    0.06415    1.000
    N2367    N        0.43166    0.65114    0.02349    1.000
    Si2368   Si       0.34902    0.62539    0.22157    1.000
    N2369    N        0.29802    0.62150    0.13438    1.000
    N2370    N        0.31042    0.62830    0.23719    1.000
    Si2371   Si       0.33484    0.60058    0.15191    1.000
    N2372    N        0.25681    0.61080    0.19582    1.000
    N2373    N        0.34960    0.63241    0.17734    1.000
    Si2374   Si       0.44931    0.63621    0.13611    1.000
    N2375    N        0.46801    0.59724    0.13749    1.000
    N2376    N        0.41321    0.65159    0.15521    1.000
    N2377    N        0.37053    0.65177    0.24806    1.000
    Si2378   Si       0.29191    0.64194    0.27459    1.000
    N2379    N        0.29771    0.60512    0.29900    1.000
    N2380    N        0.24693    0.63495    0.33217    1.000
    Si2381   Si       0.27109    0.64810    0.36721    1.000
    N2382    N        0.29486    0.61118    0.36568    1.000
    N2383    N        0.24736    0.65024    0.26665    1.000
    Si2384   Si       0.41206    0.64608    0.25589    1.000
    Si2385   Si       0.43867    0.61252    0.30230    1.000
    N2386    N        0.48067    0.62233    0.30255    1.000
    N2387    N        0.41543    0.65012    0.30174    1.000
    N2388    N        0.42793    0.60222    0.25671    1.000
    N2389    N        0.35203    0.60366    0.41023    1.000
    Si2390   Si       0.24687    0.61608    0.43144    1.000
    N2391    N        0.25395    0.64604    0.46169    1.000
    Si2392   Si       0.35300    0.64523    0.41892    1.000
    N2393    N        0.31520    0.64385    0.49254    1.000
    Si2394   Si       0.45324    0.59950    0.42138    1.000
    N2395    N        0.43762    0.62416    0.45277    1.000
    N2396    N        0.48020    0.62525    0.39993    1.000
    Si2397   Si       0.45244    0.59840    0.48519    1.000
    N2398    N        0.31926    0.62814    0.55959    1.000
    Si2399   Si       0.29433    0.62358    0.52489    1.000
    N2400    N        0.25744    0.64108    0.53584    1.000
    N2401    N        0.35188    0.61173    0.61644    1.000
    N2402    N        0.37668    0.63127    0.51965    1.000
    N2403    N        0.40922    0.62406    0.58523    1.000
    Si2404   Si       0.44977    0.64132    0.57759    1.000
    N2405    N        0.47535    0.60470    0.57557    1.000
    Si2406   Si       0.39212    0.65165    0.55612    1.000
    Si2407   Si       0.39462    0.60436    0.61943    1.000
    N2408    N        0.48309    0.61282    0.51153    1.000
    Si2409   Si       0.32978    0.63160    0.64777    1.000
    N2410    N        0.34010    0.64458    0.73701    1.000
    N2411    N        0.30686    0.60266    0.66968    1.000
    N2412    N        0.24149    0.63005    0.65738    1.000
    N2413    N        0.36335    0.64623    0.67320    1.000
    Si2414   Si       0.39215    0.61539    0.68532    1.000
    Si2415   Si       0.45912    0.63695    0.65344    1.000
    N2416    N        0.40620    0.62723    0.72306    1.000
    N2417    N        0.48820    0.60282    0.64786    1.000
    N2418    N        0.42071    0.61522    0.65278    1.000
    N2419    N        0.47023    0.60414    0.72114    1.000
    Si2420   Si       0.26003    0.62891    0.85769    1.000
    N2421    N        0.30594    0.61363    0.78753    1.000
    Si2422   Si       0.31096    0.65185    0.76709    1.000
    N2423    N        0.37291    0.62664    0.81072    1.000
    N2424    N        0.43305    0.63541    0.84181    1.000
    Si2425   Si       0.47191    0.62377    0.85951    1.000
    Si2426   Si       0.41067    0.60486    0.81946    1.000
    Si2427   Si       0.44001    0.62100    0.74998    1.000
    Si2428   Si       0.24265    0.64838    0.99523    1.000
    N2429    N        0.29190    0.63281    0.88582    1.000
    Si2430   Si       0.29908    0.59992    0.98807    1.000
    Si2431   Si       0.30676    0.59995    0.91054    1.000
    N2432    N        0.45980    0.64047    0.96801    1.000
    N2433    N        0.45887    0.60990    0.89874    1.000
    Si2434   Si       0.42071    0.62932    0.98731    1.000
    N2435    N        0.38626    0.64835    0.90017    1.000
    Si2436   Si       0.38280    0.61869    0.93157    1.000
    N2437    N        0.38922    0.64677    0.96350    1.000
    Si2438   Si       0.47904    0.61525    0.93791    1.000
    N2439    N        0.33938    0.67161    0.05232    1.000
    N2440    N        0.31725    0.70705    0.00024    1.000
    Si2441   Si       0.30209    0.65939    0.11342    1.000
    Si2442   Si       0.24622    0.70523    0.10649    1.000
    N2443    N        0.34712    0.66697    0.11981    1.000
    N2444    N        0.47272    0.70198    0.04804    1.000
    Si2445   Si       0.37115    0.67027    0.08402    1.000
    Si2446   Si       0.44770    0.69473    0.08290    1.000
    N2447    N        0.40406    0.69803    0.07189    1.000
    Si2448   Si       0.46839    0.67049    0.00534    1.000
    N2449    N        0.27501    0.68702    0.13332    1.000
    Si2450   Si       0.25779    0.70794    0.16731    1.000
    N2451    N        0.32915    0.70929    0.23431    1.000
    Si2452   Si       0.37014    0.66431    0.15643    1.000
    Si2453   Si       0.44145    0.71251    0.24078    1.000
    N2454    N        0.47509    0.65500    0.16731    1.000
    N2455    N        0.37189    0.70164    0.17802    1.000
    Si2456   Si       0.43769    0.67120    0.18529    1.000
    N2457    N        0.43346    0.67044    0.22782    1.000
    N2458    N        0.31254    0.67566    0.29342    1.000
    Si2459   Si       0.34787    0.68546    0.26483    1.000
    N2460    N        0.28890    0.68651    0.36216    1.000
    Si2461   Si       0.30391    0.70469    0.32490    1.000
    N2462    N        0.47524    0.67073    0.35379    1.000
    Si2463   Si       0.41513    0.69269    0.30557    1.000
    N2464    N        0.37642    0.70686    0.28952    1.000
    N2465    N        0.41489    0.70794    0.34556    1.000
    N2466    N        0.44909    0.70538    0.28453    1.000
    Si2467   Si       0.32042    0.69207    0.39081    1.000
    Si2468   Si       0.29410    0.66577    0.46086    1.000
    N2469    N        0.31033    0.65915    0.42095    1.000
    N2470    N        0.29656    0.71002    0.46832    1.000
    Si2471   Si       0.35645    0.65978    0.49365    1.000
    N2472    N        0.36045    0.67509    0.38663    1.000
    N2473    N        0.43412    0.69404    0.47536    1.000
    Si2474   Si       0.46729    0.66825    0.39487    1.000
    N2475    N        0.42562    0.67675    0.40954    1.000
    Si2476   Si       0.41754    0.66173    0.45066    1.000
    Si2477   Si       0.39656    0.69750    0.38314    1.000
    N2478    N        0.37427    0.65514    0.45482    1.000
    N2479    N        0.30190    0.69243    0.56150    1.000
    Si2480   Si       0.26081    0.68732    0.54617    1.000
    N2481    N        0.35319    0.69966    0.51230    1.000
    Si2482   Si       0.32701    0.66257    0.58411    1.000
    N2483    N        0.36626    0.67912    0.57802    1.000
    Si2484   Si       0.45105    0.69161    0.51574    1.000
    N2485    N        0.43187    0.66708    0.54501    1.000
    N2486    N        0.45682    0.66192    0.61698    1.000
    Si2487   Si       0.38518    0.71109    0.59861    1.000
    N2488    N        0.48939    0.71650    0.57861    1.000
    N2489    N        0.31460    0.66584    0.62563    1.000
    Si2490   Si       0.30200    0.70152    0.64648    1.000
    Si2491   Si       0.26783    0.69821    0.72357    1.000
    N2492    N        0.27831    0.68899    0.68089    1.000
    Si2493   Si       0.37904    0.65939    0.72899    1.000
    Si2494   Si       0.40475    0.71461    0.74148    1.000
    N2495    N        0.38798    0.69738    0.70646    1.000
    N2496    N        0.45468    0.67402    0.67812    1.000
    Si2497   Si       0.46808    0.68104    0.71952    1.000
    Si2498   Si       0.44327    0.69578    0.64149    1.000
    Si2499   Si       0.37255    0.69110    0.66740    1.000
    N2500    N        0.40105    0.69990    0.63651    1.000
    Si2501   Si       0.29942    0.68914    0.82706    1.000
    N2502    N        0.32864    0.67685    0.79934    1.000
    N2503    N        0.27279    0.67103    0.75784    1.000
    N2504    N        0.31856    0.69389    0.86523    1.000
    N2505    N        0.26779    0.66045    0.82796    1.000
    Si2506   Si       0.24384    0.66383    0.78750    1.000
    Si2507   Si       0.35859    0.71098    0.86277    1.000
    Si2508   Si       0.37149    0.66892    0.80261    1.000
    N2509    N        0.39245    0.67853    0.76614    1.000
    N2510    N        0.38530    0.68689    0.83929    1.000
    Si2511   Si       0.46116    0.69737    0.78005    1.000
    Si2512   Si       0.41189    0.66534    0.86758    1.000
    N2513    N        0.45887    0.65969    0.75775    1.000
    Si2514   Si       0.30004    0.67359    0.89737    1.000
    N2515    N        0.32511    0.66999    0.93404    1.000
    N2516    N        0.26123    0.69189    0.90387    1.000
    Si2517   Si       0.30897    0.67375    0.97471    1.000
    N2518    N        0.26533    0.67720    0.96950    1.000
    Si2519   Si       0.26475    0.71345    0.94352    1.000
    N2520    N        0.47494    0.70891    0.98537    1.000
    Si2521   Si       0.48607    0.69104    0.88013    1.000
    N2522    N        0.44320    0.69113    0.88293    1.000
    Si2523   Si       0.36776    0.67996    0.93153    1.000
    N2524    N        0.37952    0.71343    0.89999    1.000
    N2525    N        0.31731    0.74345    0.06684    1.000
    Si2526   Si       0.27686    0.75829    0.06222    1.000
    N2527    N        0.24948    0.72577    0.06852    1.000
    Si2528   Si       0.34925    0.77233    0.08406    1.000
    Si2529   Si       0.33203    0.71259    0.04085    1.000
    N2530    N        0.36563    0.73720    0.02886    1.000
    N2531    N        0.43158    0.74846    0.02050    1.000
    Si2532   Si       0.47176    0.73545    0.02046    1.000
    Si2533   Si       0.40255    0.73917    0.05162    1.000
    N2534    N        0.45222    0.72580    0.11461    1.000
    N2535    N        0.39345    0.76549    0.08452    1.000
    Si2536   Si       0.42419    0.76116    0.11680    1.000
    Si2537   Si       0.28938    0.72932    0.23201    1.000
    N2538    N        0.35462    0.76117    0.20033    1.000
    Si2539   Si       0.33521    0.72216    0.19399    1.000
    N2540    N        0.29276    0.72404    0.18727    1.000
    N2541    N        0.28794    0.77204    0.24038    1.000
    N2542    N        0.40655    0.73871    0.23246    1.000
    N2543    N        0.40246    0.76394    0.15628    1.000
    Si2544   Si       0.48250    0.73270    0.19480    1.000
    N2545    N        0.48457    0.72541    0.23798    1.000
    Si2546   Si       0.37363    0.76749    0.23915    1.000
    Si2547   Si       0.40400    0.73219    0.18647    1.000
    N2548    N        0.44380    0.71512    0.18759    1.000
    N2549    N        0.27863    0.73851    0.31253    1.000
    N2550    N        0.33998    0.72448    0.34114    1.000
    N2551    N        0.34897    0.76968    0.27526    1.000
    Si2552   Si       0.24239    0.72965    0.29086    1.000
    Si2553   Si       0.35095    0.75553    0.37085    1.000
    N2554    N        0.25539    0.71449    0.25283    1.000
    Si2555   Si       0.36409    0.74383    0.30947    1.000
    Si2556   Si       0.42303    0.74953    0.35611    1.000
    N2557    N        0.38440    0.76908    0.33710    1.000
    Si2558   Si       0.49112    0.71887    0.28234    1.000
    N2559    N        0.34442    0.76202    0.46940    1.000
    N2560    N        0.32469    0.73392    0.40300    1.000
    Si2561   Si       0.25942    0.73105    0.47984    1.000
    Si2562   Si       0.32616    0.76745    0.43091    1.000
    Si2563   Si       0.32800    0.72920    0.49193    1.000
    N2564    N        0.39261    0.73999    0.39323    1.000
    N2565    N        0.41164    0.76378    0.45988    1.000
    N2566    N        0.47626    0.74618    0.45114    1.000
    Si2567   Si       0.44330    0.73980    0.47792    1.000
    N2568    N        0.46031    0.74868    0.38295    1.000
    Si2569   Si       0.39841    0.77387    0.41852    1.000
    Si2570   Si       0.49056    0.73643    0.41158    1.000
    N2571    N        0.31558    0.74960    0.52959    1.000
    N2572    N        0.35396    0.74166    0.58491    1.000
    Si2573   Si       0.24441    0.73209    0.60989    1.000
    Si2574   Si       0.33796    0.71816    0.55122    1.000
    N2575    N        0.41683    0.73795    0.58164    1.000
    Si2576   Si       0.45522    0.74108    0.56381    1.000
    N2577    N        0.45054    0.73521    0.52162    1.000
    Si2578   Si       0.38729    0.76763    0.56887    1.000
    N2579    N        0.38511    0.76544    0.52619    1.000
    N2580    N        0.28523    0.73633    0.62662    1.000
    Si2581   Si       0.33117    0.74164    0.70035    1.000
    N2582    N        0.33839    0.71697    0.66473    1.000
    N2583    N        0.29913    0.76845    0.68813    1.000
    N2584    N        0.31747    0.71717    0.73230    1.000
    N2585    N        0.36270    0.76920    0.71280    1.000
    N2586    N        0.26029    0.73611    0.74595    1.000
    Si2587   Si       0.46959    0.76176    0.66968    1.000
    N2588    N        0.43468    0.76461    0.69554    1.000
    N2589    N        0.47117    0.72861    0.64316    1.000
    N2590    N        0.44931    0.71690    0.74061    1.000
    Si2591   Si       0.46212    0.75741    0.73066    1.000
    N2592    N        0.34923    0.75019    0.84588    1.000
    N2593    N        0.28949    0.72739    0.80975    1.000
    Si2594   Si       0.31416    0.76268    0.82023    1.000
    Si2595   Si       0.29925    0.73216    0.76748    1.000
    N2596    N        0.32709    0.76559    0.77812    1.000
    N2597    N        0.45180    0.73200    0.80640    1.000
    N2598    N        0.39446    0.74690    0.76716    1.000
    Si2599   Si       0.42508    0.76517    0.78961    1.000
    Si2600   Si       0.48219    0.75279    0.82972    1.000
    Si2601   Si       0.34853    0.73733    0.98857    1.000
    N2602    N        0.27671    0.75450    0.93323    1.000
    N2603    N        0.32734    0.77054    0.97819    1.000
    N2604    N        0.34847    0.77304    0.91573    1.000
    N2605    N        0.37063    0.71723    0.95857    1.000
    N2606    N        0.41281    0.76917    0.95330    1.000
    Si2607   Si       0.49034    0.71807    0.94542    1.000
    Si2608   Si       0.38353    0.74743    0.92765    1.000
    N2609    N        0.47219    0.75092    0.92283    1.000
    N2610    N        0.33068    0.81122    0.07432    1.000
    N2611    N        0.27110    0.78495    0.09715    1.000
    Si2612   Si       0.30678    0.80505    0.11120    1.000
    N2613    N        0.27439    0.78104    0.02414    1.000
    Si2614   Si       0.30551    0.80071    0.99923    1.000
    Si2615   Si       0.48518    0.81117    0.03205    1.000
    N2616    N        0.40089    0.80889    0.01457    1.000
    N2617    N        0.45345    0.79443    0.11534    1.000
    N2618    N        0.45623    0.83050    0.05762    1.000
    N2619    N        0.33820    0.77909    0.12831    1.000
    Si2620   Si       0.36536    0.78302    0.16330    1.000
    N2621    N        0.47796    0.77376    0.18304    1.000
    Si2622   Si       0.48793    0.78764    0.14012    1.000
    N2623    N        0.36937    0.82467    0.17512    1.000
    N2624    N        0.39016    0.80781    0.23484    1.000
    N2625    N        0.28913    0.81194    0.29414    1.000
    Si2626   Si       0.31587    0.79790    0.26117    1.000
    N2627    N        0.25675    0.79188    0.35816    1.000
    N2628    N        0.31851    0.78622    0.35412    1.000
    Si2629   Si       0.28547    0.78081    0.32683    1.000
    Si2630   Si       0.24671    0.78594    0.24983    1.000
    N2631    N        0.44336    0.78859    0.33705    1.000
    Si2632   Si       0.40401    0.80618    0.33130    1.000
    Si2633   Si       0.47408    0.78958    0.30600    1.000
    N2634    N        0.45390    0.79172    0.26758    1.000
    Si2635   Si       0.42572    0.82343    0.25865    1.000
    N2636    N        0.28956    0.78921    0.42649    1.000
    Si2637   Si       0.29164    0.80331    0.38559    1.000
    Si2638   Si       0.25587    0.78952    0.45444    1.000
    N2639    N        0.35830    0.79062    0.40635    1.000
    N2640    N        0.26804    0.77283    0.49515    1.000
    Si2641   Si       0.35526    0.83242    0.39077    1.000
    N2642    N        0.37431    0.82245    0.48818    1.000
    N2643    N        0.42899    0.80235    0.40349    1.000
    N2644    N        0.48700    0.81866    0.43767    1.000
    Si2645   Si       0.37991    0.77850    0.48646    1.000
    Si2646   Si       0.46252    0.79257    0.37785    1.000
    N2647    N        0.27007    0.79513    0.57056    1.000
    N2648    N        0.31088    0.82030    0.52905    1.000
    Si2649   Si       0.24580    0.80382    0.60587    1.000
    Si2650   Si       0.29033    0.78361    0.53255    1.000
    N2651    N        0.38564    0.80774    0.58342    1.000
    N2652    N        0.47429    0.77823    0.57227    1.000
    N2653    N        0.47669    0.80185    0.50094    1.000
    N2654    N        0.32777    0.80236    0.63194    1.000
    Si2655   Si       0.26488    0.79673    0.68904    1.000
    N2656    N        0.26666    0.80530    0.64445    1.000
    Si2657   Si       0.29912    0.77253    0.64391    1.000
    Si2658   Si       0.36776    0.81342    0.62301    1.000
    N2659    N        0.48537    0.82965    0.71637    1.000
    Si2660   Si       0.39818    0.78632    0.69496    1.000
    N2661    N        0.39306    0.80653    0.65649    1.000
    N2662    N        0.40622    0.82416    0.71384    1.000
    N2663    N        0.47853    0.79871    0.64917    1.000
    N2664    N        0.28649    0.79433    0.82959    1.000
    N2665    N        0.34818    0.80968    0.84769    1.000
    Si2666   Si       0.30677    0.82300    0.85555    1.000
    Si2667   Si       0.25226    0.80388    0.80573    1.000
    N2668    N        0.26833    0.83464    0.77638    1.000
    Si2669   Si       0.36270    0.77612    0.75538    1.000
    N2670    N        0.37375    0.81342    0.77221    1.000
    Si2671   Si       0.43009    0.80071    0.85990    1.000
    N2672    N        0.41105    0.79129    0.82197    1.000
    Si2673   Si       0.37800    0.81787    0.81613    1.000
    N2674    N        0.45475    0.78461    0.76298    1.000
    Si2675   Si       0.47090    0.82526    0.75904    1.000
    N2676    N        0.46840    0.78186    0.86162    1.000
    N2677    N        0.29028    0.81669    0.95958    1.000
    Si2678   Si       0.31055    0.78344    0.93676    1.000
    N2679    N        0.30074    0.81816    0.89697    1.000
    N2680    N        0.46247    0.80573    0.99485    1.000
    Si2681   Si       0.36389    0.77862    0.87605    1.000
    Si2682   Si       0.43883    0.78030    0.92156    1.000
    N2683    N        0.45897    0.81700    0.92369    1.000
    Si2684   Si       0.42464    0.78216    0.99257    1.000
    Si2685   Si       0.48382    0.82359    0.95998    1.000
    N2686    N        0.40721    0.77838    0.89072    1.000
    N2687    N        0.27858    0.86891    0.05550    1.000
    Si2688   Si       0.31927    0.84813    0.05629    1.000
    N2689    N        0.34328    0.88073    0.07025    1.000
    Si2690   Si       0.26354    0.88469    0.01766    1.000
    Si2691   Si       0.24839    0.87377    0.08543    1.000
    N2692    N        0.32533    0.83614    0.01404    1.000
    Si2693   Si       0.38376    0.87462    0.09031    1.000
    N2694    N        0.40194    0.86763    0.05020    1.000
    N2695    N        0.40636    0.84249    0.10953    1.000
    Si2696   Si       0.42632    0.84008    0.02717    1.000
    Si2697   Si       0.44747    0.83475    0.09915    1.000
    N2698    N        0.47022    0.86821    0.11949    1.000
    Si2699   Si       0.29826    0.86243    0.21492    1.000
    Si2700   Si       0.32147    0.87653    0.14375    1.000
    N2701    N        0.26166    0.85645    0.19388    1.000
    N2702    N        0.29581    0.84204    0.13319    1.000
    Si2703   Si       0.25608    0.84440    0.15355    1.000
    N2704    N        0.36384    0.88147    0.13339    1.000
    Si2705   Si       0.36333    0.83807    0.21622    1.000
    N2706    N        0.32213    0.88820    0.18561    1.000
    N2707    N        0.32312    0.83088    0.23131    1.000
    N2708    N        0.37761    0.87574    0.23168    1.000
    Si2709   Si       0.41913    0.88395    0.21675    1.000
    N2710    N        0.44374    0.85510    0.23720    1.000
    Si2711   Si       0.48470    0.86231    0.22975    1.000
    Si2712   Si       0.39132    0.85067    0.15020    1.000
    N2713    N        0.41415    0.87850    0.17344    1.000
    N2714    N        0.48235    0.88212    0.19169    1.000
    Si2715   Si       0.26505    0.84552    0.28445    1.000
    N2716    N        0.28179    0.87621    0.25528    1.000
    N2717    N        0.23972    0.86339    0.31590    1.000
    Si2718   Si       0.38337    0.86423    0.31695    1.000
    N2719    N        0.40522    0.83330    0.29645    1.000
    N2720    N        0.37764    0.83704    0.35218    1.000
    N2721    N        0.33300    0.86402    0.47290    1.000
    N2722    N        0.31144    0.84131    0.39094    1.000
    Si2723   Si       0.30813    0.88460    0.38492    1.000
    N2724    N        0.26791    0.88975    0.47777    1.000
    N2725    N        0.43724    0.86768    0.38705    1.000
    Si2726   Si       0.47324    0.88909    0.37763    1.000
    Si2727   Si       0.47266    0.84068    0.47831    1.000
    Si2728   Si       0.37629    0.85912    0.46189    1.000
    N2729    N        0.38230    0.85226    0.41845    1.000
    Si2730   Si       0.42745    0.84267    0.41982    1.000
    Si2731   Si       0.39553    0.88665    0.38004    1.000
    N2732    N        0.43345    0.85512    0.45950    1.000
    N2733    N        0.28860    0.85417    0.59695    1.000
    Si2734   Si       0.34161    0.84262    0.50994    1.000
    N2735    N        0.24926    0.84803    0.53004    1.000
    N2736    N        0.35849    0.86685    0.54359    1.000
    Si2737   Si       0.28188    0.83739    0.55658    1.000
    Si2738   Si       0.23454    0.88044    0.61682    1.000
    Si2739   Si       0.25873    0.89022    0.51879    1.000
    N2740    N        0.36832    0.85838    0.61707    1.000
    N2741    N        0.42554    0.86403    0.56353    1.000
    Si2742   Si       0.38730    0.84893    0.57391    1.000
    N2743    N        0.46622    0.87500    0.50513    1.000
    Si2744   Si       0.45026    0.89218    0.54305    1.000
    Si2745   Si       0.30008    0.83738    0.63608    1.000
    Si2746   Si       0.28041    0.87864    0.68515    1.000
    N2747    N        0.31473    0.87448    0.65596    1.000
    N2748    N        0.27657    0.83772    0.70116    1.000
    Si2749   Si       0.35539    0.88900    0.64702    1.000
    N2750    N        0.24522    0.88319    0.65823    1.000
    Si2751   Si       0.25205    0.83564    0.73733    1.000
    N2752    N        0.38039    0.87684    0.68082    1.000
    N2753    N        0.44507    0.85881    0.66355    1.000
    Si2754   Si       0.40578    0.84416    0.67328    1.000
    Si2755   Si       0.48007    0.83484    0.67265    1.000
    N2756    N        0.29508    0.86175    0.84044    1.000
    Si2757   Si       0.28389    0.86941    0.79833    1.000
    N2758    N        0.31863    0.89058    0.77998    1.000
    Si2759   Si       0.36068    0.89030    0.79220    1.000
    N2760    N        0.37821    0.87716    0.75340    1.000
    N2761    N        0.43940    0.85261    0.76638    1.000
    Si2762   Si       0.39511    0.87410    0.85687    1.000
    N2763    N        0.37878    0.86161    0.81884    1.000
    Si2764   Si       0.40073    0.83970    0.75260    1.000
    N2765    N        0.42463    0.84250    0.86858    1.000
    N2766    N        0.33527    0.86050    0.94116    1.000
    N2767    N        0.25021    0.85260    0.92620    1.000
    Si2768   Si       0.32934    0.86751    0.98429    1.000
    Si2769   Si       0.29440    0.84895    0.92600    1.000
    N2770    N        0.29098    0.88780    0.98249    1.000
    Si2771   Si       0.24846    0.83264    0.96574    1.000
    Si2772   Si       0.34204    0.89170    0.91346    1.000
    N2773    N        0.29701    0.89371    0.91029    1.000
    N2774    N        0.42963    0.87066    0.99504    1.000
    Si2775   Si       0.45253    0.85418    0.90042    1.000
    Si2776   Si       0.45282    0.88783    0.96379    1.000
    N2777    N        0.43517    0.88441    0.92537    1.000
    Si2778   Si       0.32575    0.91896    0.08278    1.000
    N2779    N        0.30409    0.94057    0.05190    1.000
    Si2780   Si       0.26095    0.94530    0.05464    1.000
    N2781    N        0.24538    0.92186    0.08744    1.000
    N2782    N        0.24578    0.92410    0.01909    1.000
    N2783    N        0.30369    0.91047    0.12051    1.000
    N2784    N        0.36155    0.94781    0.07417    1.000
    Si2785   Si       0.40364    0.94164    0.06862    1.000
    N2786    N        0.41113    0.91138    0.10210    1.000
    N2787    N        0.41517    0.93169    0.02851    1.000
    N2788    N        0.48127    0.92931    0.08730    1.000
    Si2789   Si       0.45616    0.90962    0.11451    1.000
    Si2790   Si       0.39696    0.89366    0.01552    1.000
    Si2791   Si       0.26763    0.93394    0.12430    1.000
    Si2792   Si       0.33755    0.92815    0.18948    1.000
    N2793    N        0.33291    0.93250    0.23476    1.000
    N2794    N        0.26057    0.94772    0.23142    1.000
    N2795    N        0.44444    0.93622    0.15027    1.000
    N2796    N        0.43397    0.92398    0.21695    1.000
    Si2797   Si       0.39944    0.91396    0.14715    1.000
    N2798    N        0.37451    0.93709    0.17199    1.000
    Si2799   Si       0.46663    0.92307    0.18479    1.000
    Si2800   Si       0.33921    0.90747    0.33427    1.000
    Si2801   Si       0.25910    0.90210    0.33006    1.000
    Si2802   Si       0.25510    0.91023    0.25366    1.000
    N2803    N        0.29778    0.89784    0.34402    1.000
    N2804    N        0.24778    0.92666    0.29404    1.000
    Si2805   Si       0.36009    0.90800    0.25905    1.000
    N2806    N        0.35204    0.88859    0.29832    1.000
    N2807    N        0.39340    0.93480    0.27190    1.000
    Si2808   Si       0.39504    0.93713    0.31541    1.000
    N2809    N        0.40066    0.89961    0.33562    1.000
    N2810    N        0.47637    0.93952    0.30518    1.000
    N2811    N        0.35099    0.89092    0.37389    1.000
    N2812    N        0.32695    0.93483    0.47061    1.000
    Si2813   Si       0.25230    0.91428    0.44419    1.000
    N2814    N        0.28807    0.90041    0.42098    1.000
    Si2815   Si       0.30929    0.89680    0.46010    1.000
    Si2816   Si       0.48663    0.94270    0.46613    1.000
    Si2817   Si       0.43118    0.89611    0.48142    1.000
    N2818    N        0.39587    0.91978    0.40949    1.000
    Si2819   Si       0.36671    0.93505    0.48948    1.000
    Si2820   Si       0.43186    0.94139    0.41532    1.000
    N2821    N        0.44962    0.92453    0.45262    1.000
    N2822    N        0.45758    0.93082    0.37983    1.000
    N2823    N        0.38716    0.89660    0.47833    1.000
    N2824    N        0.33022    0.91782    0.59172    1.000
    Si2825   Si       0.33863    0.90599    0.54952    1.000
    N2826    N        0.25667    0.91198    0.59952    1.000
    Si2827   Si       0.29470    0.89537    0.58845    1.000
    N2828    N        0.35685    0.93902    0.53018    1.000
    N2829    N        0.29554    0.89379    0.54318    1.000
    N2830    N        0.48005    0.91020    0.56846    1.000
    N2831    N        0.42872    0.92173    0.52000    1.000
    Si2832   Si       0.46496    0.94220    0.59459    1.000
    N2833    N        0.42348    0.94292    0.60011    1.000
    N2834    N        0.35302    0.92848    0.72123    1.000
    N2835    N        0.28801    0.90134    0.71853    1.000
    Si2836   Si       0.31731    0.91808    0.74354    1.000
    Si2837   Si       0.38445    0.90001    0.71687    1.000
    N2838    N        0.36723    0.93111    0.64327    1.000
    N2839    N        0.42429    0.91435    0.72573    1.000
    N2840    N        0.44382    0.94643    0.66512    1.000
    Si2841   Si       0.40903    0.94902    0.64017    1.000
    N2842    N        0.30757    0.93308    0.85629    1.000
    Si2843   Si       0.35283    0.92696    0.85347    1.000
    N2844    N        0.36315    0.93160    0.81254    1.000
    Si2845   Si       0.28463    0.89675    0.86781    1.000
    N2846    N        0.24805    0.89385    0.80219    1.000
    N2847    N        0.24279    0.89030    0.86847    1.000
    N2848    N        0.48710    0.90095    0.75301    1.000
    N2849    N        0.41935    0.90909    0.86631    1.000
    N2850    N        0.43493    0.91809    0.79844    1.000
    Si2851   Si       0.44652    0.92742    0.83727    1.000
    Si2852   Si       0.44530    0.89808    0.76134    1.000
    Si2853   Si       0.35477    0.93689    0.96657    1.000
    N2854    N        0.31092    0.94468    0.95668    1.000
    Si2855   Si       0.28258    0.91467    0.94853    1.000
    N2856    N        0.35989    0.89639    0.99178    1.000
    N2857    N        0.35842    0.88965    0.87414    1.000
    Si2858   Si       0.41260    0.91720    0.90822    1.000
    N2859    N        0.45643    0.92863    0.97358    1.000
    N2860    N        0.37213    0.92387    0.92596    1.000
    Si2861   Si       0.33735    0.96727    0.04247    1.000
    N2862    N        0.35773    0.96217    0.00476    1.000
    N2863    N        0.28047    0.97479    0.11550    1.000
    Si2864   Si       0.25669    0.00559    0.09560    1.000
    N2865    N        0.24666    0.98665    0.05583    1.000
    N2866    N        0.32654    0.00852    0.04926    1.000
    Si2867   Si       0.47180    0.96966    0.07024    1.000
    N2868    N        0.42959    0.97775    0.07446    1.000
    N2869    N        0.47642    0.96894    0.02557    1.000
    Si2870   Si       0.44183    0.95314    0.00388    1.000
    N2871    N        0.46643    0.99869    0.11846    1.000
    Si2872   Si       0.30426    0.99157    0.15023    1.000
    Si2873   Si       0.30026    0.96277    0.22410    1.000
    N2874    N        0.30769    0.95729    0.17885    1.000
    N2875    N        0.30901    0.00250    0.23886    1.000
    N2876    N        0.39514    0.99433    0.23027    1.000
    Si2877   Si       0.48687    0.98538    0.21409    1.000
    N2878    N        0.45557    0.99811    0.18615    1.000
    N2879    N        0.40527    0.00235    0.13374    1.000
    Si2880   Si       0.41737    0.95831    0.24210    1.000
    Si2881   Si       0.44085    0.98113    0.15001    1.000
    Si2882   Si       0.34080    0.99126    0.33782    1.000
    N2883    N        0.27188    0.99239    0.29481    1.000
    N2884    N        0.30699    0.99910    0.36170    1.000
    N2885    N        0.35392    0.95060    0.33094    1.000
    Si2886   Si       0.47850    0.97796    0.28243    1.000
    N2887    N        0.42223    0.96634    0.32973    1.000
    Si2888   Si       0.46084    0.95412    0.34394    1.000
    N2889    N        0.45520    0.98212    0.24748    1.000
    Si2890   Si       0.25418    0.99710    0.42851    1.000
    Si2891   Si       0.29836    0.96763    0.47082    1.000
    N2892    N        0.29867    0.99222    0.43539    1.000
    N2893    N        0.25703    0.95295    0.46560    1.000
    Si2894   Si       0.40507    0.99850    0.45398    1.000
    N2895    N        0.42909    0.98273    0.42215    1.000
    N2896    N        0.46980    0.97399    0.49519    1.000
    N2897    N        0.39476    0.96697    0.48127    1.000
    N2898    N        0.26775    0.97839    0.57598    1.000
    N2899    N        0.29651    0.99065    0.50596    1.000
    Si2900   Si       0.27684    0.99336    0.61498    1.000
    Si2901   Si       0.26832    0.00089    0.53872    1.000
    Si2902   Si       0.34248    0.95306    0.61590    1.000
    N2903    N        0.36201    0.98050    0.58965    1.000
    Si2904   Si       0.36643    0.97939    0.54561    1.000
    N2905    N        0.47109    0.97933    0.57045    1.000
    N2906    N        0.41029    0.99307    0.53979    1.000
    Si2907   Si       0.42876    0.96509    0.51074    1.000
    Si2908   Si       0.44302    0.01019    0.56341    1.000
    N2909    N        0.27987    0.98383    0.70665    1.000
    N2910    N        0.34603    0.99407    0.69794    1.000
    N2911    N        0.31078    0.97562    0.63557    1.000
    Si2912   Si       0.30878    0.99355    0.67508    1.000
    Si2913   Si       0.35222    0.96964    0.73331    1.000
    Si2914   Si       0.24273    0.99825    0.69003    1.000
    N2915    N        0.24379    0.98866    0.64612    1.000
    Si2916   Si       0.48254    0.99646    0.74619    1.000
    N2917    N        0.47966    0.96434    0.71489    1.000
    N2918    N        0.39583    0.99004    0.64491    1.000
    N2919    N        0.41248    0.98557    0.71194    1.000
    Si2920   Si       0.43921    0.95266    0.70881    1.000
    N2921    N        0.33241    0.99750    0.82386    1.000
    N2922    N        0.26716    0.98936    0.85560    1.000
    Si2923   Si       0.34698    0.96720    0.79474    1.000
    Si2924   Si       0.31039    0.97768    0.86096    1.000
    N2925    N        0.31782    0.95986    0.76201    1.000
    N2926    N        0.24996    0.95784    0.76681    1.000
    N2927    N        0.35870    0.96728    0.87136    1.000
    Si2928   Si       0.28262    0.98217    0.75035    1.000
    N2929    N        0.37333    0.98560    0.76644    1.000
    N2930    N        0.44756    0.96985    0.84509    1.000
    N2931    N        0.44503    0.98982    0.77097    1.000
    Si2932   Si       0.44472    0.99930    0.81354    1.000
    Si2933   Si       0.41038    0.00359    0.75298    1.000
    Si2934   Si       0.37245    0.00715    0.85287    1.000
    N2935    N        0.30702    0.99361    0.90390    1.000
    Si2936   Si       0.31710    0.98684    0.94611    1.000
    N2937    N        0.25378    0.99632    0.94139    1.000
    Si2938   Si       0.26228    0.99922    0.89985    1.000
    N2939    N        0.36234    0.98530    0.94491    1.000
    Si2940   Si       0.44206    0.98649    0.88581    1.000
    N2941    N        0.42218    0.98894    0.98634    1.000
    Si2942   Si       0.38022    0.99437    0.98360    1.000
    N2943    N        0.42645    0.95745    0.91341    1.000
    N2944    N        0.48440    0.00744    0.96322    1.000
    Si2945   Si       0.38112    0.97057    0.91004    1.000
    N2946    N        0.56733    0.03455    0.07357    1.000
    N2947    N        0.51994    0.02159    0.02228    1.000
    Si2948   Si       0.59589    0.06265    0.05857    1.000
    Si2949   Si       0.57466    0.02233    0.11383    1.000
    Si2950   Si       0.49528    0.05380    0.03771    1.000
    N2951    N        0.49446    0.04373    0.08044    1.000
    Si2952   Si       0.50693    0.01205    0.11112    1.000
    N2953    N        0.61733    0.03181    0.03855    1.000
    N2954    N        0.69827    0.03199    0.04284    1.000
    Si2955   Si       0.73926    0.03986    0.05680    1.000
    Si2956   Si       0.68013    0.06748    0.02570    1.000
    Si2957   Si       0.61610    0.04162    0.16610    1.000
    Si2958   Si       0.54134    0.01054    0.24492    1.000
    N2959    N        0.50892    0.05509    0.14153    1.000
    N2960    N        0.58476    0.05658    0.13943    1.000
    N2961    N        0.51055    0.02247    0.21499    1.000
    Si2962   Si       0.50332    0.05412    0.18504    1.000
    N2963    N        0.61453    0.06460    0.20152    1.000
    Si2964   Si       0.70098    0.02025    0.22844    1.000
    N2965    N        0.68457    0.04657    0.19713    1.000
    Si2966   Si       0.69051    0.04320    0.15433    1.000
    N2967    N        0.65036    0.03428    0.13860    1.000
    N2968    N        0.56338    0.03246    0.27576    1.000
    N2969    N        0.51617    0.04622    0.35965    1.000
    Si2970   Si       0.55675    0.02858    0.37180    1.000
    Si2971   Si       0.69555    0.06007    0.35232    1.000
    Si2972   Si       0.63660    0.06022    0.29482    1.000
    N2973    N        0.63046    0.01738    0.29664    1.000
    N2974    N        0.73505    0.03704    0.35255    1.000
    N2975    N        0.72603    0.04993    0.25069    1.000
    N2976    N        0.67501    0.06782    0.31431    1.000
    N2977    N        0.48857    0.01600    0.41999    1.000
    Si2978   Si       0.56870    0.00999    0.46771    1.000
    Si2979   Si       0.50895    0.04732    0.44270    1.000
    N2980    N        0.55369    0.04359    0.44521    1.000
    N2981    N        0.61305    0.03385    0.41178    1.000
    Si2982   Si       0.65060    0.05518    0.40374    1.000
    N2983    N        0.67563    0.02898    0.37567    1.000
    N2984    N        0.70427    0.01545    0.47220    1.000
    Si2985   Si       0.71478    0.05352    0.45562    1.000
    N2986    N        0.67648    0.06728    0.43755    1.000
    Si2987   Si       0.56821    0.02063    0.54334    1.000
    N2988    N        0.58241    0.02774    0.50409    1.000
    N2989    N        0.56650    0.05967    0.56279    1.000
    N2990    N        0.49105    0.05232    0.59983    1.000
    Si2991   Si       0.59290    0.06518    0.59863    1.000
    N2992    N        0.62768    0.04418    0.57585    1.000
    N2993    N        0.68847    0.03028    0.54441    1.000
    Si2994   Si       0.65869    0.06189    0.54941    1.000
    Si2995   Si       0.72624    0.01240    0.55640    1.000
    Si2996   Si       0.52109    0.03455    0.62432    1.000
    N2997    N        0.55816    0.05708    0.62775    1.000
    N2998    N        0.50721    0.02753    0.66494    1.000
    N2999    N        0.57251    0.02681    0.68836    1.000
    Si3000   Si       0.58010    0.06269    0.66539    1.000
    N3001    N        0.61874    0.06578    0.64385    1.000
    N3002    N        0.69748    0.04739    0.73388    1.000
    N3003    N        0.64197    0.02174    0.69470    1.000
    N3004    N        0.68564    0.03524    0.64149    1.000
    Si3005   Si       0.64308    0.03066    0.65158    1.000
    Si3006   Si       0.67663    0.01218    0.71942    1.000
    N3007    N        0.55026    0.01901    0.79892    1.000
    N3008    N        0.53006    0.04064    0.85920    1.000
    Si3009   Si       0.56378    0.05839    0.80601    1.000
    Si3010   Si       0.51908    0.01199    0.82672    1.000
    N3011    N        0.73282    0.03849    0.85738    1.000
    N3012    N        0.64307    0.05711    0.77093    1.000
    N3013    N        0.66089    0.04271    0.85734    1.000
    Si3014   Si       0.62888    0.01426    0.77458    1.000
    Si3015   Si       0.69771    0.06477    0.84657    1.000
    Si3016   Si       0.56666    0.05716    0.87559    1.000
    Si3017   Si       0.58238    0.01901    0.93516    1.000
    N3018    N        0.54043    0.03195    0.92856    1.000
    N3019    N        0.59641    0.03720    0.97325    1.000
    N3020    N        0.59774    0.03605    0.89649    1.000
    Si3021   Si       0.63661    0.05156    0.89273    1.000
    N3022    N        0.66774    0.03065    0.92033    1.000
    N3023    N        0.72149    0.03079    0.97085    1.000
    Si3024   Si       0.68729    0.05103    0.95208    1.000
    N3025    N        0.65863    0.05805    0.98557    1.000
    Si3026   Si       0.63184    0.02546    0.99641    1.000
    N3027    N        0.57752    0.08887    0.03056    1.000
    N3028    N        0.50457    0.09502    0.02910    1.000
    N3029    N        0.61270    0.08955    0.08597    1.000
    N3030    N        0.48953    0.11433    0.09915    1.000
    N3031    N        0.65369    0.10136    0.03225    1.000
    N3032    N        0.71930    0.08806    0.01401    1.000
    Si3033   Si       0.63085    0.12032    0.06061    1.000
    Si3034   Si       0.73196    0.12853    0.01864    1.000
    Si3035   Si       0.59745    0.09932    0.12554    1.000
    N3036    N        0.55658    0.11310    0.12703    1.000
    N3037    N        0.54215    0.07544    0.19222    1.000
    Si3038   Si       0.57915    0.08784    0.21346    1.000
    Si3039   Si       0.54567    0.07730    0.14857    1.000
    Si3040   Si       0.65483    0.07213    0.21595    1.000
    N3041    N        0.62886    0.11854    0.14668    1.000
    Si3042   Si       0.69838    0.11182    0.17055    1.000
    N3043    N        0.66736    0.11182    0.20298    1.000
    N3044    N        0.70587    0.07990    0.14118    1.000
    N3045    N        0.73361    0.10627    0.19583    1.000
    N3046    N        0.53277    0.08901    0.31333    1.000
    Si3047   Si       0.53306    0.08611    0.35485    1.000
    N3048    N        0.60200    0.07733    0.31167    1.000
    Si3049   Si       0.56515    0.07395    0.28837    1.000
    N3050    N        0.56063    0.09919    0.25245    1.000
    Si3051   Si       0.60262    0.09018    0.35313    1.000
    Si3052   Si       0.49381    0.10200    0.29861    1.000
    N3053    N        0.48649    0.10342    0.25527    1.000
    Si3054   Si       0.52513    0.12487    0.25051    1.000
    N3055    N        0.71420    0.11273    0.26032    1.000
    N3056    N        0.70335    0.09912    0.36621    1.000
    Si3057   Si       0.69565    0.07534    0.27480    1.000
    N3058    N        0.65634    0.07090    0.25798    1.000
    N3059    N        0.61232    0.08008    0.45615    1.000
    N3060    N        0.52133    0.12075    0.37763    1.000
    N3061    N        0.49516    0.08523    0.42766    1.000
    N3062    N        0.56540    0.11346    0.42724    1.000
    Si3063   Si       0.58422    0.06928    0.42298    1.000
    N3064    N        0.57045    0.06943    0.37766    1.000
    Si3065   Si       0.55728    0.12090    0.46909    1.000
    Si3066   Si       0.60054    0.06699    0.49780    1.000
    N3067    N        0.63871    0.08412    0.37561    1.000
    N3068    N        0.72804    0.08199    0.48697    1.000
    Si3069   Si       0.66278    0.12071    0.37160    1.000
    Si3070   Si       0.65386    0.08984    0.46819    1.000
    Si3071   Si       0.71936    0.12301    0.48355    1.000
    Si3072   Si       0.55209    0.09880    0.54511    1.000
    N3073    N        0.50932    0.09440    0.53780    1.000
    N3074    N        0.56939    0.09784    0.50589    1.000
    N3075    N        0.60757    0.10755    0.59719    1.000
    N3076    N        0.67478    0.10190    0.55757    1.000
    Si3077   Si       0.70428    0.10997    0.59094    1.000
    N3078    N        0.73187    0.08016    0.60246    1.000
    N3079    N        0.64348    0.07272    0.50925    1.000
    N3080    N        0.49507    0.08994    0.69455    1.000
    N3081    N        0.57181    0.09869    0.68507    1.000
    Si3082   Si       0.53303    0.11399    0.69548    1.000
    N3083    N        0.53365    0.11686    0.73877    1.000
    Si3084   Si       0.60135    0.12670    0.69691    1.000
    Si3085   Si       0.70850    0.07356    0.63959    1.000
    N3086    N        0.67838    0.10334    0.62578    1.000
    N3087    N        0.62835    0.11664    0.72868    1.000
    Si3088   Si       0.63547    0.10520    0.63148    1.000
    N3089    N        0.73044    0.08138    0.67725    1.000
    Si3090   Si       0.71740    0.10700    0.71160    1.000
    N3091    N        0.52541    0.08293    0.80295    1.000
    N3092    N        0.58075    0.08552    0.77656    1.000
    Si3093   Si       0.59877    0.11207    0.82521    1.000
    Si3094   Si       0.54760    0.11563    0.78137    1.000
    N3095    N        0.58603    0.07300    0.84087    1.000
    Si3096   Si       0.49318    0.12091    0.75434    1.000
    Si3097   Si       0.62083    0.09304    0.76497    1.000
    N3098    N        0.70139    0.08124    0.80620    1.000
    Si3099   Si       0.71544    0.12201    0.79042    1.000
    N3100    N        0.63274    0.11952    0.79800    1.000
    N3101    N        0.69581    0.11162    0.74992    1.000
    Si3102   Si       0.68581    0.07034    0.76717    1.000
    Si3103   Si       0.73515    0.12353    0.86909    1.000
    Si3104   Si       0.53044    0.07411    0.93100    1.000
    Si3105   Si       0.59549    0.11865    0.89953    1.000
    N3106    N        0.54305    0.08691    0.97082    1.000
    N3107    N        0.56077    0.09130    0.90202    1.000
    Si3108   Si       0.58156    0.07721    0.98578    1.000
    Si3109   Si       0.51971    0.11417    0.99363    1.000
    N3110    N        0.61219    0.10734    0.97282    1.000
    N3111    N        0.69950    0.09912    0.87380    1.000
    Si3112   Si       0.65344    0.10393    0.98755    1.000
    Si3113   Si       0.67130    0.11215    0.90397    1.000
    Si3114   Si       0.72789    0.11988    0.94723    1.000
    N3115    N        0.63388    0.09352    0.89759    1.000
    N3116    N        0.68894    0.09570    0.94442    1.000
    N3117    N        0.60273    0.14824    0.04751    1.000
    N3118    N        0.53389    0.14991    0.07008    1.000
    Si3119   Si       0.52509    0.13704    0.11184    1.000
    N3120    N        0.54675    0.14534    0.00447    1.000
    Si3121   Si       0.51248    0.18418    0.05021    1.000
    Si3122   Si       0.56117    0.12822    0.04308    1.000
    N3123    N        0.65663    0.14789    0.08598    1.000
    N3124    N        0.71343    0.16468    0.03874    1.000
    Si3125   Si       0.68842    0.17273    0.99865    1.000
    Si3126   Si       0.68105    0.18004    0.07146    1.000
    N3127    N        0.71743    0.18469    0.09450    1.000
    Si3128   Si       0.61610    0.18602    0.03100    1.000
    Si3129   Si       0.49103    0.17707    0.21141    1.000
    N3130    N        0.59025    0.12801    0.19864    1.000
    N3131    N        0.50819    0.16947    0.13678    1.000
    Si3132   Si       0.56849    0.16314    0.20966    1.000
    N3133    N        0.52546    0.15196    0.21485    1.000
    N3134    N        0.62189    0.18371    0.13270    1.000
    N3135    N        0.70285    0.17465    0.21933    1.000
    Si3136   Si       0.62864    0.18185    0.24230    1.000
    Si3137   Si       0.68568    0.13770    0.23733    1.000
    Si3138   Si       0.72903    0.15869    0.12743    1.000
    Si3139   Si       0.63083    0.13222    0.18785    1.000
    N3140    N        0.63899    0.17417    0.19849    1.000
    N3141    N        0.69073    0.14924    0.14741    1.000
    Si3142   Si       0.65214    0.15148    0.12920    1.000
    N3143    N        0.52591    0.15619    0.28150    1.000
    Si3144   Si       0.61036    0.16586    0.34915    1.000
    N3145    N        0.58550    0.12931    0.35759    1.000
    Si3146   Si       0.56149    0.18171    0.28340    1.000
    N3147    N        0.58698    0.17555    0.24756    1.000
    Si3148   Si       0.74006    0.13821    0.28753    1.000
    Si3149   Si       0.66805    0.16015    0.30518    1.000
    N3150    N        0.71102    0.15910    0.31247    1.000
    N3151    N        0.65520    0.15354    0.26380    1.000
    N3152    N        0.64712    0.14342    0.33989    1.000
    Si3153   Si       0.72818    0.18252    0.34572    1.000
    Si3154   Si       0.50039    0.16869    0.45749    1.000
    Si3155   Si       0.55982    0.13905    0.39155    1.000
    N3156    N        0.51636    0.13599    0.48011    1.000
    N3157    N        0.58364    0.15800    0.47421    1.000
    N3158    N        0.57158    0.17915    0.39882    1.000
    N3159    N        0.72082    0.14463    0.44633    1.000
    N3160    N        0.66022    0.13790    0.41125    1.000
    Si3161   Si       0.67808    0.15504    0.44581    1.000
    N3162    N        0.67306    0.12684    0.48226    1.000
    Si3163   Si       0.59933    0.14315    0.57569    1.000
    N3164    N        0.55631    0.14039    0.56396    1.000
    Si3165   Si       0.60379    0.17435    0.50853    1.000
    N3166    N        0.49982    0.15423    0.59671    1.000
    Si3167   Si       0.52987    0.17395    0.57332    1.000
    N3168    N        0.60724    0.17916    0.59740    1.000
    N3169    N        0.62160    0.14176    0.53529    1.000
    N3170    N        0.68329    0.16839    0.53679    1.000
    Si3171   Si       0.72578    0.16477    0.54523    1.000
    N3172    N        0.72347    0.15030    0.58566    1.000
    Si3173   Si       0.71606    0.18199    0.61740    1.000
    Si3174   Si       0.66136    0.12989    0.52727    1.000
    N3175    N        0.58388    0.16691    0.70146    1.000
    N3176    N        0.52703    0.14856    0.66950    1.000
    Si3177   Si       0.49409    0.15997    0.64131    1.000
    Si3178   Si       0.54619    0.18268    0.68653    1.000
    Si3179   Si       0.66598    0.16004    0.66537    1.000
    N3180    N        0.63183    0.13256    0.66307    1.000
    N3181    N        0.73782    0.16148    0.64938    1.000
    Si3182   Si       0.66612    0.13978    0.73323    1.000
    N3183    N        0.67381    0.18142    0.62706    1.000
    N3184    N        0.69232    0.14452    0.69613    1.000
    Si3185   Si       0.73335    0.16452    0.69217    1.000
    N3186    N        0.57108    0.14313    0.80561    1.000
    Si3187   Si       0.59125    0.17203    0.83110    1.000
    N3188    N        0.50789    0.14764    0.78569    1.000
    N3189    N        0.59509    0.13918    0.86101    1.000
    Si3190   Si       0.49117    0.18200    0.80221    1.000
    Si3191   Si       0.65215    0.15920    0.79607    1.000
    N3192    N        0.69340    0.15336    0.80858    1.000
    N3193    N        0.65561    0.17594    0.75467    1.000
    N3194    N        0.73756    0.16507    0.85700    1.000
    N3195    N        0.59504    0.15419    0.92557    1.000
    Si3196   Si       0.61660    0.15282    0.96501    1.000
    N3197    N        0.60051    0.18488    0.98934    1.000
    N3198    N        0.66825    0.15530    0.90701    1.000
    N3199    N        0.65675    0.14746    0.98271    1.000
    N3200    N        0.72170    0.14804    0.97892    1.000
    N3201    N        0.53893    0.20925    0.02709    1.000
    N3202    N        0.59946    0.21732    0.05800    1.000
    Si3203   Si       0.56583    0.24136    0.04179    1.000
    N3204    N        0.48857    0.20963    0.07652    1.000
    Si3205   Si       0.55691    0.18741    0.99391    1.000
    Si3206   Si       0.61816    0.21307    0.09905    1.000
    N3207    N        0.65989    0.19402    0.03259    1.000
    N3208    N        0.66070    0.21614    0.09439    1.000
    Si3209   Si       0.67246    0.23360    0.02027    1.000
    Si3210   Si       0.74218    0.19070    0.05905    1.000
    N3211    N        0.52626    0.23637    0.12651    1.000
    N3212    N        0.50099    0.21431    0.18849    1.000
    Si3213   Si       0.52918    0.20575    0.15794    1.000
    Si3214   Si       0.60912    0.19957    0.17104    1.000
    N3215    N        0.56740    0.19308    0.17804    1.000
    N3216    N        0.69742    0.23844    0.19164    1.000
    N3217    N        0.64925    0.22015    0.24290    1.000
    Si3218   Si       0.67293    0.20341    0.20370    1.000
    N3219    N        0.62566    0.23857    0.18232    1.000
    N3220    N        0.54926    0.22410    0.28287    1.000
    Si3221   Si       0.56162    0.22980    0.32601    1.000
    N3222    N        0.51925    0.23408    0.34644    1.000
    N3223    N        0.58059    0.18820    0.32375    1.000
    N3224    N        0.57712    0.24218    0.36674    1.000
    Si3225   Si       0.67927    0.22793    0.27535    1.000
    Si3226   Si       0.66273    0.21686    0.34914    1.000
    N3227    N        0.66190    0.20301    0.30689    1.000
    N3228    N        0.72066    0.22069    0.26446    1.000
    N3229    N        0.69951    0.20328    0.36917    1.000
    N3230    N        0.63028    0.19869    0.37206    1.000
    Si3231   Si       0.51706    0.23582    0.44936    1.000
    N3232    N        0.60323    0.21240    0.44099    1.000
    Si3233   Si       0.60014    0.21829    0.39658    1.000
    N3234    N        0.52822    0.19632    0.44382    1.000
    Si3235   Si       0.57004    0.18444    0.44228    1.000
    N3236    N        0.67532    0.19946    0.44297    1.000
    Si3237   Si       0.64030    0.22137    0.45879    1.000
    Si3238   Si       0.70349    0.21216    0.41226    1.000
    N3239    N        0.63657    0.20249    0.49906    1.000
    N3240    N        0.54180    0.20383    0.60452    1.000
    N3241    N        0.51210    0.20291    0.54373    1.000
    Si3242   Si       0.54410    0.22936    0.52630    1.000
    N3243    N        0.57672    0.20029    0.53035    1.000
    Si3244   Si       0.51085    0.23217    0.62182    1.000
    Si3245   Si       0.66628    0.20813    0.53042    1.000
    N3246    N        0.65732    0.22683    0.57017    1.000
    Si3247   Si       0.64363    0.20322    0.60369    1.000
    N3248    N        0.69317    0.23496    0.51417    1.000
    N3249    N        0.72932    0.22170    0.60918    1.000
    Si3250   Si       0.73418    0.23507    0.52623    1.000
    Si3251   Si       0.58144    0.20628    0.62222    1.000
    N3252    N        0.51741    0.19904    0.71686    1.000
    N3253    N        0.56917    0.21352    0.66353    1.000
    Si3254   Si       0.53082    0.23617    0.73631    1.000
    Si3255   Si       0.60484    0.20362    0.69141    1.000
    N3256    N        0.68979    0.23371    0.73207    1.000
    N3257    N        0.61604    0.23292    0.72112    1.000
    Si3258   Si       0.71595    0.24099    0.69793    1.000
    N3259    N        0.61512    0.23253    0.62407    1.000
    Si3260   Si       0.65265    0.21133    0.73105    1.000
    N3261    N        0.64883    0.19270    0.68947    1.000
    N3262    N        0.56941    0.20835    0.83861    1.000
    N3263    N        0.51126    0.22032    0.80566    1.000
    Si3264   Si       0.55231    0.23412    0.80724    1.000
    N3265    N        0.56435    0.23393    0.76526    1.000
    Si3266   Si       0.65070    0.22373    0.83302    1.000
    N3267    N        0.68405    0.20619    0.85438    1.000
    N3268    N        0.72780    0.21665    0.79943    1.000
    Si3269   Si       0.70126    0.24161    0.77438    1.000
    N3270    N        0.62968    0.18755    0.81920    1.000
    N3271    N        0.66341    0.24143    0.79510    1.000
    Si3272   Si       0.71394    0.18607    0.82813    1.000
    Si3273   Si       0.55581    0.22644    0.87539    1.000
    Si3274   Si       0.50685    0.20138    0.93416    1.000
    N3275    N        0.54181    0.19303    0.95508    1.000
    N3276    N        0.52890    0.19799    0.89323    1.000
    N3277    N        0.58829    0.22080    0.90366    1.000
    Si3278   Si       0.48784    0.19696    0.87574    1.000
    Si3279   Si       0.56725    0.18730    0.91809    1.000
    N3280    N        0.72055    0.20333    0.91654    1.000
    N3281    N        0.65332    0.22093    0.92165    1.000
    Si3282   Si       0.68087    0.19583    0.89778    1.000
    Si3283   Si       0.62405    0.24356    0.89837    1.000
    Si3284   Si       0.71722    0.22827    0.95121    1.000
    N3285    N        0.69806    0.21416    0.98774    1.000
    Si3286   Si       0.55617    0.26457    0.11307    1.000
    N3287    N        0.56133    0.27316    0.06951    1.000
    N3288    N        0.57223    0.26574    0.00620    1.000
    Si3289   Si       0.61142    0.28229    0.01069    1.000
    N3290    N        0.50099    0.27707    0.99729    1.000
    N3291    N        0.53366    0.30414    0.11778    1.000
    N3292    N        0.72260    0.26470    0.10305    1.000
    N3293    N        0.68459    0.26530    0.05470    1.000
    Si3294   Si       0.73060    0.27096    0.05987    1.000
    Si3295   Si       0.67957    0.25562    0.10104    1.000
    N3296    N        0.62117    0.29640    0.04960    1.000
    Si3297   Si       0.66399    0.30274    0.04367    1.000
    N3298    N        0.64321    0.25433    0.99700    1.000
    N3299    N        0.59425    0.24555    0.12251    1.000
    Si3300   Si       0.51467    0.29790    0.15579    1.000
    N3301    N        0.53382    0.27529    0.18805    1.000
    Si3302   Si       0.57179    0.29067    0.20556    1.000
    N3303    N        0.59209    0.26806    0.23791    1.000
    N3304    N        0.59497    0.29902    0.16908    1.000
    N3305    N        0.72124    0.29313    0.17151    1.000
    Si3306   Si       0.74014    0.25748    0.19789    1.000
    Si3307   Si       0.61858    0.26777    0.15241    1.000
    Si3308   Si       0.63052    0.25643    0.22302    1.000
    N3309    N        0.66007    0.27408    0.13736    1.000
    Si3310   Si       0.68140    0.27551    0.17669    1.000
    N3311    N        0.65533    0.28979    0.20820    1.000
    Si3312   Si       0.56487    0.26359    0.27195    1.000
    N3313    N        0.58751    0.26617    0.30964    1.000
    N3314    N        0.53077    0.29228    0.27143    1.000
    N3315    N        0.53167    0.29851    0.36274    1.000
    Si3316   Si       0.48760    0.28885    0.27025    1.000
    Si3317   Si       0.61236    0.26668    0.36084    1.000
    Si3318   Si       0.67474    0.28693    0.32120    1.000
    N3319    N        0.65148    0.25805    0.34351    1.000
    N3320    N        0.69172    0.27024    0.28474    1.000
    Si3321   Si       0.73195    0.26301    0.26856    1.000
    Si3322   Si       0.53783    0.25767    0.37729    1.000
    N3323    N        0.53695    0.26151    0.41998    1.000
    N3324    N        0.53316    0.24901    0.48838    1.000
    Si3325   Si       0.67958    0.27115    0.49638    1.000
    Si3326   Si       0.71000    0.29410    0.38814    1.000
    N3327    N        0.62379    0.26078    0.40175    1.000
    N3328    N        0.65012    0.26456    0.46283    1.000
    N3329    N        0.69709    0.25612    0.41033    1.000
    Si3330   Si       0.65945    0.27590    0.42212    1.000
    N3331    N        0.71007    0.29800    0.48194    1.000
    N3332    N        0.55853    0.26199    0.55128    1.000
    Si3333   Si       0.52680    0.28904    0.56953    1.000
    N3334    N        0.49624    0.25851    0.58659    1.000
    Si3335   Si       0.58602    0.29580    0.56050    1.000
    Si3336   Si       0.51291    0.28771    0.49929    1.000
    N3337    N        0.62320    0.28354    0.58112    1.000
    N3338    N        0.69813    0.28186    0.59199    1.000
    Si3339   Si       0.66283    0.27164    0.56769    1.000
    N3340    N        0.66534    0.29531    0.53207    1.000
    N3341    N        0.55274    0.26113    0.70875    1.000
    N3342    N        0.59026    0.28518    0.65707    1.000
    Si3343   Si       0.55834    0.25642    0.66610    1.000
    N3344    N        0.52177    0.26653    0.64680    1.000
    Si3345   Si       0.58689    0.26074    0.73759    1.000
    Si3346   Si       0.71599    0.26000    0.62450    1.000
    Si3347   Si       0.67582    0.29843    0.66931    1.000
    N3348    N        0.69465    0.25790    0.66365    1.000
    Si3349   Si       0.61922    0.27509    0.62424    1.000
    N3350    N        0.73787    0.27841    0.70732    1.000
    N3351    N        0.56984    0.27242    0.81850    1.000
    Si3352   Si       0.54551    0.29873    0.84426    1.000
    N3353    N        0.59540    0.29988    0.75298    1.000
    N3354    N        0.50382    0.29563    0.82868    1.000
    N3355    N        0.49724    0.25767    0.75070    1.000
    Si3356   Si       0.58831    0.30555    0.79664    1.000
    Si3357   Si       0.65395    0.29680    0.84611    1.000
    N3358    N        0.63866    0.25680    0.86031    1.000
    N3359    N        0.72428    0.27777    0.77589    1.000
    Si3360   Si       0.72950    0.30048    0.81241    1.000
    N3361    N        0.69753    0.29746    0.84017    1.000
    N3362    N        0.54389    0.26640    0.87762    1.000
    Si3363   Si       0.54239    0.28945    0.98638    1.000
    N3364    N        0.55479    0.29337    0.94470    1.000
    Si3365   Si       0.53021    0.29477    0.90933    1.000
    Si3366   Si       0.59648    0.30348    0.94278    1.000
    N3367    N        0.72899    0.29838    0.90482    1.000
    N3368    N        0.62480    0.27319    0.93044    1.000
    Si3369   Si       0.65231    0.25074    0.95520    1.000
    N3370    N        0.69356    0.26608    0.94950    1.000
    N3371    N        0.55945    0.34200    0.06353    1.000
    Si3372   Si       0.52309    0.33354    0.08547    1.000
    Si3373   Si       0.58863    0.31181    0.07460    1.000
    Si3374   Si       0.49490    0.31778    0.01247    1.000
    N3375    N        0.61029    0.32810    0.10847    1.000
    Si3376   Si       0.72103    0.32729    0.00986    1.000
    N3377    N        0.67817    0.33764    0.06824    1.000
    N3378    N        0.67841    0.31690    0.00502    1.000
    Si3379   Si       0.64021    0.35345    0.08647    1.000
    N3380    N        0.56254    0.33120    0.22059    1.000
    N3381    N        0.51190    0.33936    0.17164    1.000
    Si3382   Si       0.60768    0.33693    0.15091    1.000
    Si3383   Si       0.54831    0.35613    0.18862    1.000
    N3384    N        0.71192    0.36300    0.15362    1.000
    Si3385   Si       0.72663    0.33583    0.18525    1.000
    N3386    N        0.63306    0.34826    0.23998    1.000
    N3387    N        0.69850    0.34048    0.21798    1.000
    Si3388   Si       0.65660    0.33386    0.20879    1.000
    N3389    N        0.64663    0.34668    0.16850    1.000
    N3390    N        0.58250    0.33628    0.28621    1.000
    Si3391   Si       0.54583    0.33180    0.26206    1.000
    N3392    N        0.59743    0.30951    0.35737    1.000
    Si3393   Si       0.60184    0.30926    0.31349    1.000
    N3394    N        0.64386    0.31487    0.31263    1.000
    Si3395   Si       0.72724    0.33617    0.32497    1.000
    N3396    N        0.69744    0.34941    0.29666    1.000
    Si3397   Si       0.66163    0.35467    0.31624    1.000
    Si3398   Si       0.70668    0.35845    0.25562    1.000
    N3399    N        0.70640    0.30338    0.34535    1.000
    Si3400   Si       0.56052    0.32919    0.37033    1.000
    N3401    N        0.55247    0.33259    0.41544    1.000
    N3402    N        0.50911    0.31310    0.46719    1.000
    N3403    N        0.58726    0.35965    0.47410    1.000
    Si3404   Si       0.52124    0.30548    0.42527    1.000
    Si3405   Si       0.65928    0.35296    0.39784    1.000
    N3406    N        0.67329    0.31285    0.40521    1.000
    N3407    N        0.73523    0.35523    0.47502    1.000
    N3408    N        0.62078    0.35337    0.42085    1.000
    N3409    N        0.65694    0.34491    0.49417    1.000
    N3410    N        0.59589    0.32919    0.53277    1.000
    Si3411   Si       0.54186    0.34634    0.60976    1.000
    N3412    N        0.52337    0.31354    0.53261    1.000
    N3413    N        0.55880    0.31060    0.59028    1.000
    Si3414   Si       0.51341    0.35625    0.54285    1.000
    N3415    N        0.50582    0.34702    0.58508    1.000
    Si3416   Si       0.63932    0.33030    0.53395    1.000
    N3417    N        0.71972    0.33924    0.54083    1.000
    N3418    N        0.64756    0.35191    0.57030    1.000
    Si3419   Si       0.64648    0.34419    0.61535    1.000
    Si3420   Si       0.70086    0.33635    0.50184    1.000
    Si3421   Si       0.73022    0.30440    0.56869    1.000
    N3422    N        0.49052    0.30830    0.69831    1.000
    N3423    N        0.60529    0.35233    0.62880    1.000
    Si3424   Si       0.58643    0.32775    0.66056    1.000
    N3425    N        0.54061    0.33119    0.65153    1.000
    N3426    N        0.59815    0.34724    0.69803    1.000
    Si3427   Si       0.50577    0.30582    0.65703    1.000
    N3428    N        0.65077    0.30508    0.63520    1.000
    Si3429   Si       0.68045    0.34367    0.72852    1.000
    N3430    N        0.70949    0.32519    0.66773    1.000
    N3431    N        0.72127    0.33732    0.74332    1.000
    Si3432   Si       0.62060    0.32484    0.72681    1.000
    N3433    N        0.65729    0.31243    0.70576    1.000
    N3434    N        0.55820    0.33136    0.81527    1.000
    Si3435   Si       0.51204    0.33554    0.80574    1.000
    N3436    N        0.49351    0.32717    0.76699    1.000
    N3437    N        0.74076    0.34322    0.80910    1.000
    N3438    N        0.62782    0.31462    0.81474    1.000
    N3439    N        0.64603    0.34790    0.75496    1.000
    Si3440   Si       0.64041    0.35339    0.79979    1.000
    Si3441   Si       0.56686    0.35708    0.90278    1.000
    N3442    N        0.54043    0.32801    0.88123    1.000
    N3443    N        0.60333    0.33819    0.91989    1.000
    N3444    N        0.61377    0.31583    0.98310    1.000
    N3445    N        0.53352    0.33044    0.99697    1.000
    Si3446   Si       0.70441    0.32271    0.87838    1.000
    Si3447   Si       0.64406    0.34725    0.91171    1.000
    N3448    N        0.73502    0.32350    0.97016    1.000
    N3449    N        0.67119    0.33338    0.94125    1.000
    Si3450   Si       0.65035    0.33781    0.97905    1.000
    Si3451   Si       0.70662    0.30534    0.94259    1.000
    N3452    N        0.66016    0.32282    0.88069    1.000
    Si3453   Si       0.57563    0.38110    0.05248    1.000
    N3454    N        0.56638    0.39227    0.01203    1.000
    N3455    N        0.56761    0.41098    0.08219    1.000
    Si3456   Si       0.52888    0.41041    0.10155    1.000
    N3457    N        0.50855    0.37198    0.09920    1.000
    N3458    N        0.61772    0.37235    0.05462    1.000
    Si3459   Si       0.64034    0.39584    0.02630    1.000
    N3460    N        0.67691    0.40373    0.05055    1.000
    Si3461   Si       0.70585    0.36839    0.05637    1.000
    N3462    N        0.65571    0.38610    0.11316    1.000
    N3463    N        0.73188    0.38495    0.08763    1.000
    N3464    N        0.72653    0.36918    0.01680    1.000
    N3465    N        0.53727    0.39621    0.20062    1.000
    Si3466   Si       0.57043    0.41176    0.16577    1.000
    Si3467   Si       0.50164    0.41176    0.17912    1.000
    N3468    N        0.57867    0.36806    0.15874    1.000
    Si3469   Si       0.54084    0.40191    0.24321    1.000
    N3470    N        0.65856    0.41446    0.17754    1.000
    Si3471   Si       0.67082    0.37858    0.15195    1.000
    N3472    N        0.68666    0.39905    0.25255    1.000
    Si3473   Si       0.72759    0.41697    0.24947    1.000
    Si3474   Si       0.50499    0.37083    0.35087    1.000
    N3475    N        0.50399    0.40659    0.32496    1.000
    N3476    N        0.54895    0.36721    0.35517    1.000
    N3477    N        0.52394    0.36806    0.26615    1.000
    N3478    N        0.58238    0.39948    0.25478    1.000
    Si3479   Si       0.60822    0.36742    0.26857    1.000
    N3480    N        0.60023    0.41643    0.35863    1.000
    Si3481   Si       0.63380    0.40176    0.33854    1.000
    N3482    N        0.63257    0.38238    0.30054    1.000
    N3483    N        0.65733    0.36942    0.35734    1.000
    Si3484   Si       0.56015    0.40765    0.37311    1.000
    N3485    N        0.56519    0.40054    0.41721    1.000
    Si3486   Si       0.57923    0.36262    0.43088    1.000
    N3487    N        0.67871    0.37810    0.42879    1.000
    N3488    N        0.63169    0.40769    0.46346    1.000
    Si3489   Si       0.66200    0.41965    0.43607    1.000
    Si3490   Si       0.71966    0.38912    0.44495    1.000
    Si3491   Si       0.63343    0.36530    0.46303    1.000
    N3492    N        0.54538    0.38500    0.52965    1.000
    N3493    N        0.54819    0.38864    0.61259    1.000
    Si3494   Si       0.58363    0.36833    0.51659    1.000
    N3495    N        0.61286    0.39951    0.52749    1.000
    Si3496   Si       0.51459    0.41775    0.61745    1.000
    N3497    N        0.61697    0.41229    0.59521    1.000
    Si3498   Si       0.69681    0.40383    0.60520    1.000
    Si3499   Si       0.63791    0.39539    0.56214    1.000
    N3500    N        0.67794    0.41323    0.56635    1.000
    N3501    N        0.73583    0.39352    0.59136    1.000
    Si3502   Si       0.59104    0.39246    0.62405    1.000
    N3503    N        0.53762    0.39043    0.71034    1.000
    Si3504   Si       0.58112    0.39124    0.69928    1.000
    N3505    N        0.58498    0.41340    0.66073    1.000
    Si3506   Si       0.49602    0.40054    0.71751    1.000
    N3507    N        0.60166    0.41669    0.72733    1.000
    Si3508   Si       0.69472    0.41562    0.72904    1.000
    N3509    N        0.67904    0.37212    0.62900    1.000
    N3510    N        0.68389    0.38112    0.70429    1.000
    Si3511   Si       0.70194    0.36778    0.66669    1.000
    N3512    N        0.73800    0.39069    0.66268    1.000
    N3513    N        0.52568    0.38076    0.81678    1.000
    N3514    N        0.60638    0.37949    0.80706    1.000
    Si3515   Si       0.51502    0.41457    0.78877    1.000
    Si3516   Si       0.56705    0.37354    0.82770    1.000
    N3517    N        0.58456    0.37824    0.86986    1.000
    Si3518   Si       0.49561    0.38080    0.84991    1.000
    Si3519   Si       0.61112    0.42127    0.81782    1.000
    N3520    N        0.73764    0.40702    0.83121    1.000
    N3521    N        0.71829    0.40132    0.76417    1.000
    Si3522   Si       0.71488    0.36983    0.83355    1.000
    N3523    N        0.67447    0.36951    0.82005    1.000
    Si3524   Si       0.74157    0.36575    0.77075    1.000
    N3525    N        0.50554    0.39646    0.98428    1.000
    N3526    N        0.51930    0.40343    0.88071    1.000
    Si3527   Si       0.51389    0.39852    0.92450    1.000
    Si3528   Si       0.54199    0.37043    0.98314    1.000
    N3529    N        0.54513    0.37014    0.93882    1.000
    Si3530   Si       0.61396    0.41084    0.88298    1.000
    N3531    N        0.71250    0.36520    0.87738    1.000
    Si3532   Si       0.73878    0.39309    0.97952    1.000
    N3533    N        0.63904    0.39327    0.91517    1.000
    Si3534   Si       0.71749    0.40422    0.89651    1.000
    N3535    N        0.64248    0.37989    0.98653    1.000
    N3536    N        0.71593    0.40137    0.93861    1.000
    Si3537   Si       0.63448    0.41108    0.95577    1.000
    N3538    N        0.50721    0.44030    0.07707    1.000
    Si3539   Si       0.59510    0.44233    0.09576    1.000
    Si3540   Si       0.58077    0.43140    0.00033    1.000
    N3541    N        0.56781    0.47753    0.08736    1.000
    Si3542   Si       0.52320    0.47789    0.08057    1.000
    N3543    N        0.54561    0.45696    0.99893    1.000
    N3544    N        0.62063    0.43501    0.01908    1.000
    N3545    N        0.63659    0.45086    0.08537    1.000
    N3546    N        0.70093    0.44298    0.10575    1.000
    Si3547   Si       0.72034    0.46611    0.02035    1.000
    Si3548   Si       0.65050    0.46122    0.00159    1.000
    N3549    N        0.67955    0.47547    0.03194    1.000
    Si3550   Si       0.66837    0.42124    0.08966    1.000
    N3551    N        0.60050    0.43200    0.13727    1.000
    Si3552   Si       0.60113    0.43661    0.23964    1.000
    Si3553   Si       0.51878    0.46533    0.15137    1.000
    N3554    N        0.59324    0.43189    0.19745    1.000
    N3555    N        0.53240    0.42517    0.14296    1.000
    Si3556   Si       0.67335    0.42339    0.21813    1.000
    Si3557   Si       0.62464    0.44326    0.17098    1.000
    N3558    N        0.64185    0.44914    0.23386    1.000
    Si3559   Si       0.72939    0.47125    0.19141    1.000
    N3560    N        0.71462    0.43691    0.21216    1.000
    N3561    N        0.51959    0.43774    0.25948    1.000
    Si3562   Si       0.49447    0.44124    0.35116    1.000
    N3563    N        0.53267    0.44268    0.36989    1.000
    Si3564   Si       0.49023    0.42851    0.28862    1.000
    N3565    N        0.57890    0.46861    0.25556    1.000
    Si3566   Si       0.72223    0.45364    0.30793    1.000
    N3567    N        0.65231    0.44327    0.33559    1.000
    N3568    N        0.68778    0.46179    0.28239    1.000
    N3569    N        0.74165    0.43702    0.34311    1.000
    N3570    N        0.55413    0.47342    0.42756    1.000
    Si3571   Si       0.54785    0.43237    0.44087    1.000
    N3572    N        0.50308    0.43070    0.44307    1.000
    N3573    N        0.56426    0.42704    0.48060    1.000
    Si3574   Si       0.60736    0.42790    0.49249    1.000
    Si3575   Si       0.55300    0.47858    0.38449    1.000
    Si3576   Si       0.72102    0.44535    0.48868    1.000
    Si3577   Si       0.62564    0.45398    0.36906    1.000
    N3578    N        0.70135    0.43426    0.44702    1.000
    Si3579   Si       0.70717    0.47467    0.43189    1.000
    N3580    N        0.61689    0.46992    0.49548    1.000
    N3581    N        0.64473    0.44216    0.40503    1.000
    N3582    N        0.56340    0.45954    0.54005    1.000
    N3583    N        0.57574    0.46283    0.60764    1.000
    N3584    N        0.50988    0.43768    0.57871    1.000
    Si3585   Si       0.54241    0.46813    0.57759    1.000
    N3586    N        0.49974    0.44133    0.51272    1.000
    Si3587   Si       0.54024    0.42783    0.51694    1.000
    Si3588   Si       0.61737    0.45625    0.59520    1.000
    Si3589   Si       0.69475    0.44751    0.54649    1.000
    N3590    N        0.68019    0.45198    0.50575    1.000
    N3591    N        0.73553    0.45258    0.53062    1.000
    N3592    N        0.62938    0.47786    0.55819    1.000
    Si3593   Si       0.68528    0.47818    0.61801    1.000
    N3594    N        0.52441    0.45045    0.64612    1.000
    Si3595   Si       0.51347    0.46899    0.74062    1.000
    Si3596   Si       0.56864    0.45231    0.64957    1.000
    Si3597   Si       0.62214    0.45123    0.74367    1.000
    N3598    N        0.72316    0.43988    0.70556    1.000
    N3599    N        0.66544    0.44411    0.74319    1.000
    Si3600   Si       0.73227    0.43610    0.66291    1.000
    N3601    N        0.70072    0.44134    0.63204    1.000
    N3602    N        0.64138    0.47823    0.62277    1.000
    N3603    N        0.53887    0.44567    0.76791    1.000
    Si3604   Si       0.56948    0.45917    0.79356    1.000
    N3605    N        0.49635    0.44501    0.81825    1.000
    N3606    N        0.56862    0.43085    0.82872    1.000
    N3607    N        0.61179    0.45171    0.78713    1.000
    Si3608   Si       0.54845    0.43299    0.86766    1.000
    N3609    N        0.52955    0.47184    0.87140    1.000
    Si3610   Si       0.72615    0.43089    0.79574    1.000
    Si3611   Si       0.66969    0.45699    0.84920    1.000
    N3612    N        0.69350    0.45460    0.80689    1.000
    Si3613   Si       0.68336    0.47443    0.76992    1.000
    N3614    N        0.63786    0.42788    0.85075    1.000
    N3615    N        0.58255    0.43825    0.89413    1.000
    Si3616   Si       0.51169    0.43855    0.97804    1.000
    Si3617   Si       0.57040    0.45417    0.93318    1.000
    N3618    N        0.59747    0.43246    0.95927    1.000
    N3619    N        0.52870    0.43802    0.93674    1.000
    N3620    N        0.69712    0.44126    0.87937    1.000
    Si3621   Si       0.70431    0.44076    0.95385    1.000
    N3622    N        0.66252    0.44301    0.96483    1.000
    Si3623   Si       0.73408    0.46160    0.89005    1.000
    N3624    N        0.72762    0.43427    0.99206    1.000
    N3625    N        0.72363    0.47324    0.93127    1.000
    N3626    N        0.51484    0.50512    0.04831    1.000
    Si3627   Si       0.58860    0.51723    0.08581    1.000
    Si3628   Si       0.53414    0.49832    0.01020    1.000
    Si3629   Si       0.61185    0.52370    0.01640    1.000
    N3630    N        0.57030    0.51927    0.00040    1.000
    N3631    N        0.50828    0.49042    0.11978    1.000
    N3632    N        0.62063    0.51079    0.05604    1.000
    N3633    N        0.67640    0.50704    0.09931    1.000
    Si3634   Si       0.65512    0.48731    0.06731    1.000
    Si3635   Si       0.70473    0.48282    0.12064    1.000
    N3636    N        0.59758    0.52794    0.12671    1.000
    N3637    N        0.54956    0.48963    0.16988    1.000
    Si3638   Si       0.59092    0.51008    0.16390    1.000
    N3639    N        0.52303    0.51051    0.23238    1.000
    Si3640   Si       0.53662    0.52459    0.19393    1.000
    N3641    N        0.62747    0.48613    0.17326    1.000
    N3642    N        0.69841    0.48438    0.16288    1.000
    N3643    N        0.67431    0.50622    0.22141    1.000
    Si3644   Si       0.70969    0.52977    0.23359    1.000
    Si3645   Si       0.66504    0.50557    0.17918    1.000
    Si3646   Si       0.54865    0.52411    0.32438    1.000
    N3647    N        0.53118    0.51193    0.36371    1.000
    N3648    N        0.52783    0.50164    0.29361    1.000
    Si3649   Si       0.49816    0.52449    0.26874    1.000
    N3650    N        0.59195    0.53058    0.32343    1.000
    Si3651   Si       0.61174    0.51990    0.36081    1.000
    Si3652   Si       0.53738    0.47747    0.25952    1.000
    N3653    N        0.70959    0.48978    0.33245    1.000
    N3654    N        0.64000    0.50118    0.28658    1.000
    N3655    N        0.65222    0.50691    0.35236    1.000
    Si3656   Si       0.69395    0.51616    0.36735    1.000
    Si3657   Si       0.66683    0.48096    0.31775    1.000
    Si3658   Si       0.66133    0.48160    0.25400    1.000
    N3659    N        0.71059    0.53481    0.27701    1.000
    N3660    N        0.59406    0.48254    0.37370    1.000
    N3661    N        0.50049    0.49673    0.46602    1.000
    Si3662   Si       0.54075    0.50717    0.45271    1.000
    Si3663   Si       0.50650    0.53352    0.39360    1.000
    N3664    N        0.56483    0.53041    0.47966    1.000
    N3665    N        0.67639    0.49568    0.45344    1.000
    N3666    N        0.71908    0.49213    0.39406    1.000
    Si3667   Si       0.65798    0.48622    0.49134    1.000
    N3668    N        0.52581    0.50620    0.58306    1.000
    N3669    N        0.58804    0.52703    0.54156    1.000
    N3670    N        0.58606    0.52946    0.61338    1.000
    Si3671   Si       0.54176    0.53426    0.61185    1.000
    Si3672   Si       0.59712    0.48557    0.53003    1.000
    Si3673   Si       0.66332    0.50979    0.55743    1.000
    N3674    N        0.67076    0.52078    0.51571    1.000
    Si3675   Si       0.72745    0.52653    0.59330    1.000
    N3676    N        0.69223    0.48018    0.57541    1.000
    N3677    N        0.74096    0.52027    0.51755    1.000
    N3678    N        0.52919    0.52232    0.65240    1.000
    N3679    N        0.60855    0.49265    0.73648    1.000
    Si3680   Si       0.57879    0.50033    0.70544    1.000
    N3681    N        0.53781    0.48699    0.70789    1.000
    N3682    N        0.59294    0.48452    0.66774    1.000
    Si3683   Si       0.51342    0.48423    0.67108    1.000
    Si3684   Si       0.61563    0.50978    0.64004    1.000
    N3685    N        0.70187    0.51722    0.62828    1.000
    N3686    N        0.63871    0.53855    0.66408    1.000
    N3687    N        0.59029    0.52722    0.85812    1.000
    Si3688   Si       0.57550    0.53097    0.81856    1.000
    N3689    N        0.55246    0.49618    0.80948    1.000
    Si3690   Si       0.51598    0.48411    0.82958    1.000
    Si3691   Si       0.72497    0.52743    0.76907    1.000
    Si3692   Si       0.62636    0.52644    0.75853    1.000
    N3693    N        0.71637    0.52804    0.81329    1.000
    N3694    N        0.66299    0.51094    0.77731    1.000
    N3695    N        0.65874    0.49943    0.84791    1.000
    Si3696   Si       0.67235    0.52685    0.81701    1.000
    N3697    N        0.72028    0.49013    0.74967    1.000
    Si3698   Si       0.73799    0.52894    0.85019    1.000
    Si3699   Si       0.57393    0.52978    0.95815    1.000
    N3700    N        0.55881    0.49776    0.93294    1.000
    N3701    N        0.50453    0.51504    0.98392    1.000
    Si3702   Si       0.52465    0.49770    0.90425    1.000
    N3703    N        0.73260    0.50451    0.99566    1.000
    Si3704   Si       0.64074    0.51242    0.94731    1.000
    N3705    N        0.63395    0.49877    0.98877    1.000
    Si3706   Si       0.72309    0.51076    0.95257    1.000
    Si3707   Si       0.62986    0.51594    0.87462    1.000
    N3708    N        0.68233    0.52618    0.94366    1.000
    N3709    N        0.63202    0.49291    0.91091    1.000
    N3710    N        0.71161    0.53337    0.88267    1.000
    N3711    N        0.58239    0.56159    0.07617    1.000
    N3712    N        0.50501    0.57265    0.02503    1.000
    Si3713   Si       0.59266    0.58846    0.04256    1.000
    Si3714   Si       0.60790    0.56940    0.11098    1.000
    N3715    N        0.49201    0.55268    0.09386    1.000
    N3716    N        0.61478    0.56743    0.01298    1.000
    N3717    N        0.64741    0.57415    0.09700    1.000
    N3718    N        0.71459    0.56562    0.09376    1.000
    N3719    N        0.72565    0.57464    0.01331    1.000
    Si3720   Si       0.67891    0.54761    0.11567    1.000
    N3721    N        0.50968    0.54909    0.16560    1.000
    Si3722   Si       0.59523    0.57244    0.21679    1.000
    N3723    N        0.57995    0.53938    0.19496    1.000
    N3724    N        0.63303    0.59042    0.20399    1.000
    N3725    N        0.70336    0.56690    0.21279    1.000
    N3726    N        0.66780    0.54492    0.15842    1.000
    Si3727   Si       0.66972    0.57669    0.18627    1.000
    N3728    N        0.53612    0.56510    0.31374    1.000
    N3729    N        0.59631    0.56018    0.26167    1.000
    Si3730   Si       0.57104    0.58423    0.28969    1.000
    Si3731   Si       0.51015    0.59270    0.29127    1.000
    N3732    N        0.49193    0.57091    0.37172    1.000
    N3733    N        0.65159    0.56620    0.30354    1.000
    Si3734   Si       0.69507    0.55976    0.30580    1.000
    N3735    N        0.70528    0.55605    0.34856    1.000
    Si3736   Si       0.62028    0.53824    0.29103    1.000
    Si3737   Si       0.57212    0.56667    0.41644    1.000
    N3738    N        0.60495    0.54868    0.39235    1.000
    N3739    N        0.60011    0.59561    0.43472    1.000
    N3740    N        0.53909    0.53761    0.42186    1.000
    Si3741   Si       0.68487    0.53654    0.44470    1.000
    N3742    N        0.65181    0.56192    0.45695    1.000
    Si3743   Si       0.63764    0.56892    0.41358    1.000
    Si3744   Si       0.62398    0.59421    0.47052    1.000
    Si3745   Si       0.69358    0.57988    0.38169    1.000
    N3746    N        0.67651    0.54487    0.40367    1.000
    N3747    N        0.72684    0.54521    0.45372    1.000
    N3748    N        0.52884    0.57467    0.60388    1.000
    N3749    N        0.53616    0.57101    0.53575    1.000
    N3750    N        0.58975    0.58619    0.57372    1.000
    Si3751   Si       0.57000    0.55637    0.51332    1.000
    N3752    N        0.60037    0.58692    0.50737    1.000
    Si3753   Si       0.60284    0.54518    0.57797    1.000
    Si3754   Si       0.49370    0.58208    0.54075    1.000
    Si3755   Si       0.67321    0.57480    0.58280    1.000
    N3756    N        0.70373    0.54843    0.56451    1.000
    N3757    N        0.71255    0.58656    0.50863    1.000
    Si3758   Si       0.70777    0.54530    0.52094    1.000
    N3759    N        0.64525    0.53990    0.58075    1.000
    Si3760   Si       0.50817    0.58592    0.73717    1.000
    N3761    N        0.50587    0.55821    0.70319    1.000
    Si3762   Si       0.54137    0.55209    0.68159    1.000
    N3763    N        0.55156    0.59051    0.66579    1.000
    N3764    N        0.57775    0.54345    0.70283    1.000
    Si3765   Si       0.71820    0.59901    0.69374    1.000
    N3766    N        0.63834    0.55858    0.73361    1.000
    Si3767   Si       0.68005    0.54784    0.65213    1.000
    N3768    N        0.67380    0.58301    0.62623    1.000
    Si3769   Si       0.61744    0.56344    0.69529    1.000
    N3770    N        0.71858    0.55940    0.67269    1.000
    Si3771   Si       0.67032    0.58472    0.74175    1.000
    N3772    N        0.54898    0.56462    0.82680    1.000
    Si3773   Si       0.51581    0.58647    0.81098    1.000
    N3774    N        0.50204    0.56474    0.77463    1.000
    N3775    N        0.60552    0.54358    0.79064    1.000
    Si3776   Si       0.55674    0.55712    0.86843    1.000
    Si3777   Si       0.62051    0.58420    0.80186    1.000
    N3778    N        0.66214    0.56791    0.81332    1.000
    N3779    N        0.70588    0.56284    0.74996    1.000
    Si3780   Si       0.74487    0.58468    0.75986    1.000
    N3781    N        0.54575    0.56401    0.95904    1.000
    Si3782   Si       0.50851    0.56019    0.98140    1.000
    N3783    N        0.57700    0.58352    0.89594    1.000
    N3784    N        0.61225    0.54742    0.95205    1.000
    Si3785   Si       0.55652    0.59628    0.93305    1.000
    N3786    N        0.52249    0.53784    0.88479    1.000
    N3787    N        0.64330    0.55516    0.88680    1.000
    Si3788   Si       0.68055    0.54967    0.90707    1.000
    N3789    N        0.70196    0.58993    0.91367    1.000
    Si3790   Si       0.61847    0.59146    0.88185    1.000
    Si3791   Si       0.62007    0.58436    0.97237    1.000
    Si3792   Si       0.73943    0.56841    0.90210    1.000
    N3793    N        0.55966    0.61019    0.02230    1.000
    N3794    N        0.51512    0.61546    0.08234    1.000
    Si3795   Si       0.51929    0.61270    0.03830    1.000
    N3796    N        0.50440    0.65184    0.02607    1.000
    Si3797   Si       0.53474    0.64993    0.10223    1.000
    N3798    N        0.61326    0.62056    0.06067    1.000
    Si3799   Si       0.65217    0.61321    0.07732    1.000
    N3800    N        0.64897    0.64325    0.11005    1.000
    N3801    N        0.72603    0.63217    0.10426    1.000
    N3802    N        0.68307    0.61223    0.04746    1.000
    Si3803   Si       0.72046    0.60312    0.07212    1.000
    Si3804   Si       0.69084    0.60402    0.00479    1.000
    Si3805   Si       0.53280    0.62124    0.22676    1.000
    Si3806   Si       0.57884    0.62727    0.16588    1.000
    N3807    N        0.54324    0.64666    0.14438    1.000
    N3808    N        0.56811    0.60632    0.20390    1.000
    N3809    N        0.49561    0.60530    0.21112    1.000
    N3810    N        0.59975    0.60096    0.13891    1.000
    N3811    N        0.61843    0.64911    0.17363    1.000
    N3812    N        0.67100    0.65246    0.21802    1.000
    N3813    N        0.68003    0.60806    0.15805    1.000
    Si3814   Si       0.63080    0.63509    0.21672    1.000
    N3815    N        0.73611    0.62781    0.22715    1.000
    Si3816   Si       0.71991    0.62464    0.14595    1.000
    Si3817   Si       0.63877    0.62300    0.14579    1.000
    Si3818   Si       0.57611    0.64034    0.33687    1.000
    N3819    N        0.53337    0.63486    0.34335    1.000
    N3820    N        0.59483    0.60692    0.31681    1.000
    N3821    N        0.54380    0.60918    0.26785    1.000
    N3822    N        0.60075    0.64186    0.37306    1.000
    Si3823   Si       0.70211    0.63586    0.32116    1.000
    N3824    N        0.66121    0.63520    0.33554    1.000
    N3825    N        0.63888    0.62704    0.26894    1.000
    Si3826   Si       0.63890    0.60911    0.30803    1.000
    N3827    N        0.72503    0.65420    0.35645    1.000
    Si3828   Si       0.73615    0.61963    0.26910    1.000
    N3829    N        0.70515    0.60052    0.29477    1.000
    Si3830   Si       0.51330    0.60910    0.37552    1.000
    Si3831   Si       0.58119    0.62755    0.40910    1.000
    N3832    N        0.52125    0.64684    0.46941    1.000
    N3833    N        0.54661    0.59932    0.40110    1.000
    N3834    N        0.65663    0.60098    0.38836    1.000
    N3835    N        0.65285    0.62501    0.48157    1.000
    N3836    N        0.72632    0.59916    0.40535    1.000
    Si3837   Si       0.64437    0.63943    0.37688    1.000
    N3838    N        0.55188    0.63718    0.60617    1.000
    N3839    N        0.53957    0.63306    0.54322    1.000
    Si3840   Si       0.51158    0.64380    0.51126    1.000
    N3841    N        0.60761    0.64781    0.55783    1.000
    Si3842   Si       0.54831    0.59879    0.56991    1.000
    Si3843   Si       0.61315    0.60926    0.54285    1.000
    Si3844   Si       0.67888    0.61411    0.51454    1.000
    N3845    N        0.70967    0.62052    0.59039    1.000
    N3846    N        0.70094    0.64926    0.52636    1.000
    N3847    N        0.65713    0.59809    0.54826    1.000
    Si3848   Si       0.53292    0.60766    0.63258    1.000
    N3849    N        0.54309    0.61069    0.72982    1.000
    Si3850   Si       0.56770    0.61889    0.69469    1.000
    N3851    N        0.60996    0.60602    0.68945    1.000
    N3852    N        0.56524    0.65863    0.67639    1.000
    N3853    N        0.66330    0.65459    0.65510    1.000
    Si3854   Si       0.64618    0.63134    0.69059    1.000
    N3855    N        0.72433    0.62946    0.65979    1.000
    Si3856   Si       0.69076    0.62268    0.63071    1.000
    N3857    N        0.67671    0.60353    0.70418    1.000
    N3858    N        0.52879    0.62371    0.79613    1.000
    Si3859   Si       0.55834    0.62768    0.76684    1.000
    N3860    N        0.59875    0.61097    0.77370    1.000
    N3861    N        0.61294    0.60607    0.83874    1.000
    Si3862   Si       0.68669    0.60422    0.80676    1.000
    N3863    N        0.67388    0.63520    0.83448    1.000
    Si3864   Si       0.62923    0.64142    0.76259    1.000
    N3865    N        0.66228    0.61443    0.77088    1.000
    Si3866   Si       0.63053    0.64553    0.83358    1.000
    N3867    N        0.73656    0.64159    0.85810    1.000
    N3868    N        0.73031    0.60152    0.79845    1.000
    Si3869   Si       0.60678    0.64465    0.92351    1.000
    Si3870   Si       0.56930    0.63738    0.98986    1.000
    N3871    N        0.58960    0.61629    0.95832    1.000
    N3872    N        0.52067    0.62120    0.93300    1.000
    N3873    N        0.57119    0.65147    0.90266    1.000
    Si3874   Si       0.67345    0.61670    0.93286    1.000
    N3875    N        0.63841    0.62292    0.90529    1.000
    N3876    N        0.72328    0.63223    0.98842    1.000
    N3877    N        0.66101    0.60350    0.97358    1.000
    Si3878   Si       0.51613    0.68701    0.05394    1.000
    N3879    N        0.51018    0.68876    0.10027    1.000
    N3880    N        0.55690    0.66416    0.06677    1.000
    N3881    N        0.60158    0.65982    0.00810    1.000
    Si3882   Si       0.59946    0.66143    0.05235    1.000
    N3883    N        0.53688    0.71573    0.02531    1.000
    N3884    N        0.62909    0.69153    0.06679    1.000
    Si3885   Si       0.65085    0.68649    0.10524    1.000
    N3886    N        0.69165    0.70162    0.10793    1.000
    N3887    N        0.73289    0.68456    0.05350    1.000
    Si3888   Si       0.64360    0.71691    0.03540    1.000
    N3889    N        0.57551    0.70527    0.18489    1.000
    Si3890   Si       0.56912    0.68679    0.22470    1.000
    Si3891   Si       0.51657    0.66707    0.17206    1.000
    N3892    N        0.53239    0.66221    0.21433    1.000
    N3893    N        0.60152    0.66254    0.23648    1.000
    Si3894   Si       0.61589    0.69340    0.17291    1.000
    N3895    N        0.51050    0.71140    0.16470    1.000
    Si3896   Si       0.72458    0.69643    0.13675    1.000
    Si3897   Si       0.71464    0.65955    0.20752    1.000
    N3898    N        0.62815    0.71134    0.13476    1.000
    Si3899   Si       0.66953    0.69600    0.23262    1.000
    N3900    N        0.71144    0.70071    0.22611    1.000
    N3901    N        0.72064    0.66338    0.16483    1.000
    N3902    N        0.64419    0.71196    0.20171    1.000
    N3903    N        0.51660    0.68616    0.29606    1.000
    N3904    N        0.58872    0.66957    0.30682    1.000
    Si3905   Si       0.55873    0.69922    0.29931    1.000
    Si3906   Si       0.50032    0.65514    0.32337    1.000
    Si3907   Si       0.62154    0.66747    0.27712    1.000
    N3908    N        0.65037    0.70035    0.27027    1.000
    Si3909   Si       0.71682    0.69629    0.35768    1.000
    N3910    N        0.67407    0.70626    0.36321    1.000
    N3911    N        0.72595    0.65698    0.29065    1.000
    N3912    N        0.49639    0.69154    0.41650    1.000
    Si3913   Si       0.58748    0.69854    0.44018    1.000
    Si3914   Si       0.52873    0.67846    0.44263    1.000
    N3915    N        0.56752    0.66270    0.42681    1.000
    N3916    N        0.55102    0.71440    0.45851    1.000
    Si3917   Si       0.64671    0.70266    0.39750    1.000
    N3918    N        0.65188    0.66458    0.41449    1.000
    N3919    N        0.61762    0.69038    0.47182    1.000
    N3920    N        0.73491    0.70891    0.39468    1.000
    Si3921   Si       0.65186    0.66410    0.45852    1.000
    N3922    N        0.68642    0.68821    0.47026    1.000
    Si3923   Si       0.71763    0.67448    0.49597    1.000
    N3924    N        0.55485    0.69955    0.56332    1.000
    N3925    N        0.49442    0.68087    0.52229    1.000
    N3926    N        0.60734    0.68216    0.61670    1.000
    Si3927   Si       0.51519    0.71071    0.54747    1.000
    Si3928   Si       0.56506    0.65863    0.56764    1.000
    N3929    N        0.67540    0.67851    0.58383    1.000
    Si3930   Si       0.63132    0.67950    0.57513    1.000
    N3931    N        0.73663    0.71099    0.51098    1.000
    Si3932   Si       0.70978    0.65653    0.56847    1.000
    N3933    N        0.62419    0.71119    0.54567    1.000
    Si3934   Si       0.69056    0.71312    0.60432    1.000
    Si3935   Si       0.56821    0.66892    0.63231    1.000
    N3936    N        0.51268    0.68727    0.71579    1.000
    Si3937   Si       0.53840    0.69412    0.68284    1.000
    N3938    N        0.53389    0.69682    0.63848    1.000
    N3939    N        0.63637    0.65857    0.72455    1.000
    N3940    N        0.63522    0.71274    0.68362    1.000
    Si3941   Si       0.64251    0.69401    0.64402    1.000
    Si3942   Si       0.65624    0.69766    0.71878    1.000
    Si3943   Si       0.73550    0.70591    0.72318    1.000
    N3944    N        0.69864    0.68711    0.70826    1.000
    Si3945   Si       0.70387    0.66989    0.66783    1.000
    N3946    N        0.71455    0.70060    0.64022    1.000
    Si3947   Si       0.58486    0.68794    0.80183    1.000
    N3948    N        0.56330    0.67165    0.76513    1.000
    N3949    N        0.55826    0.67852    0.83364    1.000
    N3950    N        0.50341    0.69337    0.78973    1.000
    Si3951   Si       0.53143    0.69903    0.75527    1.000
    Si3952   Si       0.52108    0.66386    0.81732    1.000
    N3953    N        0.49618    0.65936    0.85377    1.000
    N3954    N        0.61784    0.68124    0.85901    1.000
    N3955    N        0.71594    0.68861    0.81826    1.000
    Si3956   Si       0.69834    0.66616    0.85149    1.000
    N3957    N        0.62348    0.66789    0.79634    1.000
    Si3958   Si       0.64514    0.71652    0.86267    1.000
    Si3959   Si       0.57684    0.68296    0.87222    1.000
    N3960    N        0.54977    0.66972    0.96791    1.000
    N3961    N        0.50268    0.68422    0.91982    1.000
    Si3962   Si       0.53649    0.66118    0.92867    1.000
    Si3963   Si       0.54875    0.71046    0.98440    1.000
    N3964    N        0.56676    0.71304    0.90058    1.000
    N3965    N        0.67699    0.69122    0.87756    1.000
    Si3966   Si       0.72542    0.66751    0.96267    1.000
    N3967    N        0.62416    0.68424    0.93568    1.000
    Si3968   Si       0.61879    0.68698    0.97818    1.000
    N3969    N        0.72044    0.70280    0.98833    1.000
    Si3970   Si       0.66847    0.69043    0.92025    1.000
    N3971    N        0.68769    0.65722    0.93975    1.000
    N3972    N        0.65367    0.70239    0.99636    1.000
    Si3973   Si       0.53901    0.75557    0.03689    1.000
    N3974    N        0.56197    0.75996    0.07196    1.000
    N3975    N        0.49745    0.76876    0.03426    1.000
    Si3976   Si       0.60063    0.77189    0.05939    1.000
    N3977    N        0.73474    0.75030    0.08651    1.000
    N3978    N        0.62029    0.75265    0.02532    1.000
    N3979    N        0.67918    0.73846    0.04928    1.000
    N3980    N        0.62822    0.77120    0.09276    1.000
    Si3981   Si       0.70963    0.71853    0.07112    1.000
    Si3982   Si       0.66306    0.77299    0.02674    1.000
    N3983    N        0.51303    0.75953    0.12250    1.000
    Si3984   Si       0.49454    0.72124    0.12261    1.000
    N3985    N        0.57856    0.75758    0.14444    1.000
    Si3986   Si       0.54801    0.73165    0.16497    1.000
    N3987    N        0.60119    0.76689    0.22233    1.000
    N3988    N        0.54040    0.76685    0.19346    1.000
    N3989    N        0.66394    0.76046    0.24386    1.000
    Si3990   Si       0.61889    0.75342    0.13127    1.000
    Si3991   Si       0.72217    0.77078    0.12266    1.000
    N3992    N        0.72776    0.73828    0.15097    1.000
    Si3993   Si       0.64175    0.75461    0.20753    1.000
    N3994    N        0.56412    0.73474    0.32427    1.000
    Si3995   Si       0.59847    0.76143    0.33306    1.000
    Si3996   Si       0.58494    0.75492    0.26014    1.000
    N3997    N        0.49892    0.75365    0.30799    1.000
    N3998    N        0.56794    0.71437    0.25910    1.000
    N3999    N        0.61515    0.75902    0.29291    1.000
    Si4000   Si       0.65349    0.74206    0.28139    1.000
    N4001    N        0.68265    0.75308    0.31179    1.000
    Si4002   Si       0.72489    0.75312    0.30228    1.000
    N4003    N        0.72844    0.75706    0.25849    1.000
    N4004    N        0.63025    0.76187    0.36364    1.000
    Si4005   Si       0.67111    0.75177    0.35370    1.000
    N4006    N        0.73496    0.71595    0.32344    1.000
    Si4007   Si       0.54669    0.74522    0.48934    1.000
    N4008    N        0.52583    0.75915    0.40407    1.000
    N4009    N        0.60519    0.71680    0.40653    1.000
    N4010    N        0.70187    0.77217    0.37475    1.000
    Si4011   Si       0.72168    0.74935    0.40852    1.000
    N4012    N        0.66172    0.73612    0.42345    1.000
    Si4013   Si       0.62368    0.75651    0.40612    1.000
    Si4014   Si       0.68246    0.73048    0.46173    1.000
    N4015    N        0.72013    0.74659    0.45231    1.000
    N4016    N        0.65779    0.74676    0.49361    1.000
    N4017    N        0.51727    0.74475    0.52017    1.000
    Si4018   Si       0.58623    0.73176    0.55231    1.000
    N4019    N        0.58654    0.74402    0.50944    1.000
    N4020    N        0.52751    0.76342    0.61813    1.000
    N4021    N        0.58325    0.76867    0.57530    1.000
    Si4022   Si       0.50729    0.72351    0.61867    1.000
    Si4023   Si       0.62472    0.72073    0.50248    1.000
    N4024    N        0.72005    0.73367    0.57908    1.000
    N4025    N        0.60023    0.75757    0.64469    1.000
    N4026    N        0.56254    0.72924    0.69554    1.000
    Si4027   Si       0.60319    0.74097    0.68422    1.000
    Si4028   Si       0.53751    0.75777    0.71581    1.000
    N4029    N        0.49592    0.75408    0.70441    1.000
    N4030    N        0.61924    0.77273    0.70940    1.000
    N4031    N        0.65607    0.72795    0.62196    1.000
    Si4032   Si       0.65037    0.76555    0.73897    1.000
    Si4033   Si       0.64138    0.76498    0.63450    1.000
    Si4034   Si       0.55262    0.75822    0.79432    1.000
    N4035    N        0.58762    0.73048    0.79894    1.000
    N4036    N        0.53724    0.74285    0.75707    1.000
    N4037    N        0.49898    0.72680    0.86290    1.000
    N4038    N        0.51740    0.77309    0.81637    1.000
    N4039    N        0.72466    0.73331    0.75435    1.000
    N4040    N        0.65348    0.74141    0.82784    1.000
    N4041    N        0.71656    0.75775    0.82165    1.000
    Si4042   Si       0.72841    0.72417    0.79795    1.000
    Si4043   Si       0.63042    0.73660    0.79116    1.000
    N4044    N        0.64881    0.72303    0.75275    1.000
    Si4045   Si       0.49687    0.76249    0.88929    1.000
    N4046    N        0.52742    0.73842    0.95691    1.000
    N4047    N        0.59127    0.72155    0.97432    1.000
    Si4048   Si       0.59733    0.72495    0.92889    1.000
    Si4049   Si       0.59889    0.76454    0.98695    1.000
    N4050    N        0.58731    0.77060    0.93887    1.000
    N4051    N        0.68754    0.72565    0.93568    1.000
    N4052    N        0.67451    0.76728    0.98662    1.000
    Si4053   Si       0.71662    0.75520    0.92223    1.000
    Si4054   Si       0.68494    0.72562    0.98045    1.000
    N4055    N        0.62621    0.73877    0.89544    1.000
    N4056    N        0.59798    0.81489    0.04845    1.000
    N4057    N        0.56289    0.81615    0.11063    1.000
    N4058    N        0.56029    0.77731    0.00648    1.000
    Si4059   Si       0.55359    0.77445    0.11096    1.000
    Si4060   Si       0.54776    0.81794    0.99726    1.000
    N4061    N        0.67374    0.81010    0.04819    1.000
    Si4062   Si       0.65847    0.80355    0.09026    1.000
    N4063    N        0.73651    0.82136    0.01745    1.000
    Si4064   Si       0.58248    0.77872    0.18563    1.000
    N4065    N        0.58293    0.82078    0.17947    1.000
    Si4066   Si       0.51016    0.79773    0.19789    1.000
    N4067    N        0.51032    0.82150    0.15706    1.000
    N4068    N        0.50938    0.82565    0.22890    1.000
    N4069    N        0.63674    0.77302    0.16817    1.000
    Si4070   Si       0.67105    0.79825    0.16312    1.000
    Si4071   Si       0.70006    0.78226    0.23563    1.000
    N4072    N        0.68547    0.79436    0.12211    1.000
    N4073    N        0.70146    0.78230    0.19016    1.000
    N4074    N        0.70083    0.82529    0.24029    1.000
    N4075    N        0.57236    0.79557    0.33764    1.000
    N4076    N        0.50906    0.81611    0.30645    1.000
    Si4077   Si       0.53049    0.81812    0.26697    1.000
    N4078    N        0.54951    0.77833    0.27058    1.000
    Si4079   Si       0.53876    0.77313    0.31216    1.000
    N4080    N        0.49475    0.82092    0.37170    1.000
    Si4081   Si       0.72146    0.80571    0.35199    1.000
    N4082    N        0.69105    0.82554    0.33046    1.000
    Si4083   Si       0.55267    0.78497    0.42595    1.000
    N4084    N        0.59625    0.78529    0.42283    1.000
    N4085    N        0.53616    0.78211    0.46766    1.000
    N4086    N        0.55088    0.82839    0.41495    1.000
    Si4087   Si       0.54324    0.81555    0.49402    1.000
    Si4088   Si       0.59538    0.82929    0.41833    1.000
    Si4089   Si       0.49238    0.78346    0.46372    1.000
    N4090    N        0.72025    0.81634    0.44835    1.000
    Si4091   Si       0.73829    0.79857    0.48379    1.000
    N4092    N        0.65246    0.81654    0.47621    1.000
    N4093    N        0.73677    0.83326    0.38243    1.000
    Si4094   Si       0.59410    0.80018    0.54438    1.000
    N4095    N        0.53378    0.80718    0.53788    1.000
    Si4096   Si       0.49751    0.78266    0.53448    1.000
    Si4097   Si       0.49484    0.79343    0.60961    1.000
    N4098    N        0.58556    0.81373    0.50003    1.000
    N4099    N        0.51443    0.83190    0.60017    1.000
    Si4100   Si       0.56996    0.77375    0.61595    1.000
    Si4101   Si       0.66439    0.78849    0.50821    1.000
    N4102    N        0.63998    0.80475    0.61409    1.000
    N4103    N        0.63858    0.79733    0.54206    1.000
    N4104    N        0.69926    0.80372    0.59118    1.000
    N4105    N        0.70754    0.79816    0.51497    1.000
    Si4106   Si       0.65833    0.81749    0.57438    1.000
    Si4107   Si       0.73090    0.82404    0.54057    1.000
    Si4108   Si       0.73317    0.77392    0.59105    1.000
    N4109    N        0.56969    0.81691    0.62886    1.000
    Si4110   Si       0.61066    0.82915    0.63525    1.000
    Si4111   Si       0.59760    0.81016    0.71031    1.000
    N4112    N        0.55606    0.79566    0.70939    1.000
    Si4113   Si       0.52751    0.82884    0.71070    1.000
    N4114    N        0.60210    0.83515    0.74502    1.000
    N4115    N        0.67296    0.78298    0.66097    1.000
    Si4116   Si       0.68285    0.81302    0.63160    1.000
    N4117    N        0.72537    0.81883    0.65073    1.000
    Si4118   Si       0.70402    0.80224    0.69119    1.000
    N4119    N        0.68845    0.78363    0.72747    1.000
    Si4120   Si       0.73009    0.77334    0.73932    1.000
    N4121    N        0.56654    0.80096    0.79520    1.000
    Si4122   Si       0.52891    0.81489    0.81166    1.000
    Si4123   Si       0.60515    0.81181    0.78084    1.000
    N4124    N        0.68799    0.81316    0.79870    1.000
    N4125    N        0.65643    0.80454    0.85603    1.000
    Si4126   Si       0.72934    0.82554    0.79716    1.000
    Si4127   Si       0.67463    0.77938    0.82474    1.000
    N4128    N        0.63184    0.77815    0.77697    1.000
    Si4129   Si       0.62035    0.82940    0.85014    1.000
    Si4130   Si       0.73978    0.77789    0.85208    1.000
    N4131    N        0.59370    0.80984    0.87688    1.000
    N4132    N        0.53020    0.78826    0.89958    1.000
    Si4133   Si       0.55155    0.82269    0.88428    1.000
    N4134    N        0.52572    0.80862    0.96202    1.000
    Si4135   Si       0.54336    0.77587    0.93872    1.000
    N4136    N        0.65205    0.79620    0.92454    1.000
    Si4137   Si       0.61458    0.78081    0.90426    1.000
    N4138    N        0.72882    0.78655    0.95185    1.000
    N4139    N        0.71061    0.77342    0.88469    1.000
    Si4140   Si       0.66058    0.80259    0.96653    1.000
    N4141    N        0.62212    0.80440    0.98688    1.000
    Si4142   Si       0.68049    0.80658    0.89203    1.000
    Si4143   Si       0.72447    0.82071    0.97535    1.000
    N4144    N        0.57272    0.87075    0.07006    1.000
    Si4145   Si       0.54432    0.87188    0.03589    1.000
    Si4146   Si       0.61109    0.83607    0.01398    1.000
    Si4147   Si       0.59296    0.83603    0.08462    1.000
    N4148    N        0.52166    0.83559    0.02867    1.000
    N4149    N        0.57275    0.85554    0.99668    1.000
    N4150    N        0.71341    0.88272    0.02237    1.000
    N4151    N        0.63947    0.86857    0.02202    1.000
    N4152    N        0.63175    0.83499    0.10438    1.000
    N4153    N        0.72616    0.86349    0.10739    1.000
    Si4154   Si       0.69635    0.84105    0.03024    1.000
    N4155    N        0.54148    0.87659    0.15378    1.000
    N4156    N        0.60207    0.88259    0.19718    1.000
    Si4157   Si       0.49881    0.86549    0.15395    1.000
    Si4158   Si       0.55477    0.83507    0.14851    1.000
    Si4159   Si       0.61683    0.84114    0.19879    1.000
    N4160    N        0.66595    0.88465    0.21715    1.000
    Si4161   Si       0.63602    0.86332    0.13403    1.000
    N4162    N        0.71931    0.85137    0.17897    1.000
    Si4163   Si       0.73694    0.83524    0.21846    1.000
    Si4164   Si       0.68154    0.86936    0.17914    1.000
    N4165    N        0.62959    0.83766    0.24048    1.000
    N4166    N        0.65096    0.83769    0.17187    1.000
    Si4167   Si       0.74176    0.84227    0.14428    1.000
    N4168    N        0.55737    0.86215    0.34290    1.000
    N4169    N        0.56276    0.84828    0.26919    1.000
    Si4170   Si       0.60566    0.85197    0.27462    1.000
    Si4171   Si       0.51638    0.84282    0.34083    1.000
    N4172    N        0.49988    0.88096    0.26558    1.000
    N4173    N        0.49199    0.88006    0.33969    1.000
    Si4174   Si       0.54348    0.88574    0.26285    1.000
    Si4175   Si       0.59257    0.83417    0.34396    1.000
    N4176    N        0.62222    0.84430    0.31344    1.000
    Si4177   Si       0.66418    0.85697    0.31922    1.000
    N4178    N        0.67589    0.87749    0.28195    1.000
    N4179    N        0.66618    0.88676    0.35234    1.000
    Si4180   Si       0.66909    0.85304    0.24762    1.000
    Si4181   Si       0.51125    0.83973    0.40903    1.000
    N4182    N        0.52052    0.85052    0.48274    1.000
    N4183    N        0.50855    0.88235    0.40396    1.000
    N4184    N        0.60836    0.85787    0.44704    1.000
    N4185    N        0.61652    0.84077    0.38017    1.000
    N4186    N        0.67834    0.85463    0.41140    1.000
    Si4187   Si       0.68343    0.83870    0.45188    1.000
    N4188    N        0.68854    0.87527    0.47769    1.000
    Si4189   Si       0.61714    0.83963    0.48556    1.000
    Si4190   Si       0.71872    0.86974    0.40257    1.000
    Si4191   Si       0.64692    0.86896    0.38716    1.000
    N4192    N        0.52921    0.87660    0.54409    1.000
    Si4193   Si       0.54132    0.84052    0.56449    1.000
    N4194    N        0.58538    0.83898    0.56479    1.000
    Si4195   Si       0.50925    0.88370    0.50672    1.000
    N4196    N        0.54479    0.88684    0.61115    1.000
    Si4197   Si       0.61381    0.87143    0.55611    1.000
    N4198    N        0.62602    0.87131    0.51480    1.000
    N4199    N        0.72436    0.86480    0.55456    1.000
    N4200    N        0.65340    0.86044    0.57279    1.000
    Si4201   Si       0.68714    0.88616    0.56194    1.000
    Si4202   Si       0.65513    0.88613    0.61620    1.000
    Si4203   Si       0.54007    0.84748    0.62981    1.000
    N4204    N        0.52200    0.84756    0.66959    1.000
    N4205    N        0.54029    0.86551    0.72947    1.000
    Si4206   Si       0.53722    0.88308    0.68934    1.000
    N4207    N        0.61234    0.87357    0.62465    1.000
    Si4208   Si       0.61370    0.87874    0.67056    1.000
    N4209    N        0.61033    0.83507    0.67769    1.000
    Si4210   Si       0.71258    0.86221    0.66197    1.000
    N4211    N        0.64039    0.88549    0.70511    1.000
    N4212    N        0.70075    0.84716    0.70128    1.000
    N4213    N        0.67679    0.85678    0.63994    1.000
    Si4214   Si       0.68236    0.88073    0.72168    1.000
    Si4215   Si       0.62453    0.87185    0.74259    1.000
    Si4216   Si       0.51897    0.87456    0.76691    1.000
    Si4217   Si       0.51455    0.88062    0.85844    1.000
    N4218    N        0.53339    0.84044    0.84686    1.000
    N4219    N        0.50368    0.83599    0.78445    1.000
    N4220    N        0.61712    0.87153    0.86393    1.000
    N4221    N        0.73650    0.86726    0.79203    1.000
    N4222    N        0.66425    0.86921    0.76068    1.000
    Si4223   Si       0.66432    0.84719    0.79946    1.000
    N4224    N        0.67139    0.88359    0.82233    1.000
    N4225    N        0.62345    0.83856    0.80881    1.000
    N4226    N        0.49455    0.86953    0.89455    1.000
    Si4227   Si       0.52226    0.87617    0.93053    1.000
    N4228    N        0.56153    0.85698    0.91061    1.000
    Si4229   Si       0.58451    0.89022    0.88879    1.000
    N4230    N        0.49126    0.86699    0.95971    1.000
    Si4231   Si       0.58579    0.88987    0.97121    1.000
    Si4232   Si       0.71898    0.87634    0.92702    1.000
    N4233    N        0.68377    0.83659    0.98184    1.000
    N4234    N        0.69865    0.84230    0.90984    1.000
    N4235    N        0.62642    0.88480    0.95588    1.000
    Si4236   Si       0.66448    0.88011    0.98550    1.000
    N4237    N        0.55685    0.93202    0.10171    1.000
    N4238    N        0.53385    0.91393    0.03760    1.000
    Si4239   Si       0.58814    0.90416    0.09239    1.000
    Si4240   Si       0.52292    0.93500    0.07511    1.000
    Si4241   Si       0.55902    0.94528    0.01484    1.000
    N4242    N        0.59210    0.92152    0.00244    1.000
    N4243    N        0.61808    0.92326    0.06828    1.000
    Si4244   Si       0.62688    0.91065    0.02726    1.000
    N4245    N        0.68387    0.91732    0.07700    1.000
    Si4246   Si       0.70014    0.92185    0.03539    1.000
    N4247    N        0.66414    0.92485    0.00738    1.000
    Si4248   Si       0.70286    0.89984    0.11231    1.000
    Si4249   Si       0.65219    0.94440    0.08808    1.000
    N4250    N        0.54818    0.91876    0.23590    1.000
    Si4251   Si       0.57948    0.89892    0.16528    1.000
    N4252    N        0.57321    0.94253    0.16905    1.000
    N4253    N        0.60328    0.89058    0.12970    1.000
    Si4254   Si       0.54273    0.94596    0.20329    1.000
    N4255    N        0.70505    0.93601    0.24360    1.000
    N4256    N        0.63026    0.94558    0.21825    1.000
    N4257    N        0.72090    0.93582    0.12949    1.000
    Si4258   Si       0.62595    0.90356    0.22734    1.000
    N4259    N        0.67164    0.88796    0.13977    1.000
    N4260    N        0.54049    0.91462    0.29959    1.000
    Si4261   Si       0.56111    0.90426    0.33860    1.000
    N4262    N        0.60428    0.92091    0.33324    1.000
    Si4263   Si       0.49856    0.90280    0.30373    1.000
    N4264    N        0.60882    0.89621    0.26703    1.000
    Si4265   Si       0.54939    0.94809    0.26911    1.000
    Si4266   Si       0.61468    0.93182    0.29324    1.000
    Si4267   Si       0.69830    0.91851    0.34984    1.000
    N4268    N        0.72006    0.91832    0.31085    1.000
    Si4269   Si       0.68993    0.91953    0.27884    1.000
    Si4270   Si       0.63099    0.93139    0.36767    1.000
    N4271    N        0.65582    0.94504    0.28636    1.000
    N4272    N        0.54871    0.92840    0.37153    1.000
    Si4273   Si       0.53417    0.91715    0.41096    1.000
    Si4274   Si       0.60792    0.90346    0.44080    1.000
    N4275    N        0.56494    0.91825    0.44096    1.000
    N4276    N        0.51573    0.92045    0.48765    1.000
    Si4277   Si       0.55151    0.94211    0.47646    1.000
    N4278    N        0.50769    0.94899    0.42837    1.000
    N4279    N        0.72821    0.90188    0.37718    1.000
    N4280    N        0.62591    0.90410    0.40127    1.000
    N4281    N        0.71372    0.94352    0.46492    1.000
    N4282    N        0.63435    0.92211    0.46957    1.000
    Si4283   Si       0.72298    0.90101    0.47260    1.000
    N4284    N        0.60012    0.90968    0.56984    1.000
    Si4285   Si       0.52258    0.90405    0.57749    1.000
    Si4286   Si       0.58418    0.90346    0.61044    1.000
    N4287    N        0.53803    0.94485    0.56684    1.000
    N4288    N        0.58379    0.94376    0.50957    1.000
    Si4289   Si       0.57982    0.94694    0.55404    1.000
    N4290    N        0.67415    0.91495    0.53225    1.000
    N4291    N        0.68865    0.90932    0.59636    1.000
    Si4292   Si       0.65523    0.89691    0.49644    1.000
    N4293    N        0.57847    0.94384    0.62444    1.000
    Si4294   Si       0.50806    0.93515    0.73473    1.000
    N4295    N        0.50869    0.91511    0.69250    1.000
    N4296    N        0.49642    0.94212    0.62672    1.000
    Si4297   Si       0.56715    0.94135    0.69329    1.000
    N4298    N        0.55271    0.93984    0.73597    1.000
    N4299    N        0.57668    0.90033    0.67961    1.000
    Si4300   Si       0.48942    0.94846    0.67223    1.000
    N4301    N        0.64297    0.92660    0.63838    1.000
    N4302    N        0.71155    0.91186    0.71776    1.000
    Si4303   Si       0.57348    0.92261    0.77129    1.000
    Si4304   Si       0.51511    0.93557    0.81151    1.000
    N4305    N        0.54070    0.90044    0.79322    1.000
    N4306    N        0.61114    0.90423    0.76769    1.000
    N4307    N        0.48956    0.91150    0.83747    1.000
    N4308    N        0.54840    0.90842    0.87091    1.000
    N4309    N        0.63046    0.93123    0.82693    1.000
    N4310    N        0.68891    0.93146    0.78454    1.000
    Si4311   Si       0.65017    0.91115    0.79037    1.000
    Si4312   Si       0.71869    0.90510    0.80603    1.000
    Si4313   Si       0.64706    0.90193    0.85397    1.000
    N4314    N        0.72878    0.91436    0.85050    1.000
    N4315    N        0.54923    0.90552    0.94933    1.000
    N4316    N        0.60990    0.92105    0.90658    1.000
    Si4317   Si       0.54305    0.95364    0.87443    1.000
    Si4318   Si       0.70935    0.93394    0.88341    1.000
    N4319    N        0.67198    0.91442    0.88845    1.000
    Si4320   Si       0.64874    0.91320    0.92754    1.000
    N4321    N        0.73769    0.91611    0.91459    1.000
    N4322    N        0.68639    0.89653    0.94979    1.000
    N4323    N        0.57384    0.97456    0.04291    1.000
    N4324    N        0.51506    0.98028    0.07581    1.000
    N4325    N        0.60041    0.98973    0.10494    1.000
    Si4326   Si       0.60907    0.99270    0.06095    1.000
    Si4327   Si       0.54373    0.00449    0.05447    1.000
    Si4328   Si       0.50393    0.99074    0.99830    1.000
    N4329    N        0.65052    0.98046    0.06408    1.000
    Si4330   Si       0.68162    0.99085    0.03526    1.000
    N4331    N        0.71412    0.96313    0.04132    1.000
    N4332    N        0.65987    0.99169    0.99760    1.000
    N4333    N        0.54392    0.99904    0.13383    1.000
    Si4334   Si       0.56823    0.96190    0.13110    1.000
    N4335    N        0.56317    0.97970    0.22066    1.000
    Si4336   Si       0.59954    0.96910    0.19845    1.000
    N4337    N        0.50059    0.94773    0.19571    1.000
    N4338    N        0.60992    0.99823    0.17009    1.000
    Si4339   Si       0.69483    0.96717    0.14542    1.000
    Si4340   Si       0.63324    0.99476    0.13263    1.000
    N4341    N        0.67006    0.99582    0.24463    1.000
    N4342    N        0.73623    0.99228    0.22958    1.000
    N4343    N        0.71041    0.00656    0.13775    1.000
    N4344    N        0.69370    0.96164    0.18899    1.000
    Si4345   Si       0.67033    0.95694    0.22608    1.000
    N4346    N        0.65692    0.95877    0.12740    1.000
    Si4347   Si       0.73189    0.95368    0.21303    1.000
    N4348    N        0.58521    0.96263    0.28532    1.000
    N4349    N        0.51709    0.97710    0.26510    1.000
    Si4350   Si       0.56859    0.96877    0.36588    1.000
    N4351    N        0.57255    0.00335    0.33953    1.000
    N4352    N        0.49388    0.98033    0.35890    1.000
    Si4353   Si       0.58729    0.00415    0.29757    1.000
    N4354    N        0.67148    0.95073    0.36165    1.000
    Si4355   Si       0.66191    0.98950    0.28869    1.000
    N4356    N        0.69595    0.99713    0.31052    1.000
    Si4357   Si       0.73541    0.00281    0.32519    1.000
    N4358    N        0.59812    0.98191    0.45406    1.000
    N4359    N        0.53438    0.98390    0.47621    1.000
    Si4360   Si       0.50743    0.98164    0.40127    1.000
    N4361    N        0.54887    0.99407    0.39719    1.000
    N4362    N        0.60768    0.96484    0.38310    1.000
    N4363    N        0.72214    0.98091    0.40638    1.000
    Si4364   Si       0.61867    0.95959    0.48470    1.000
    Si4365   Si       0.68192    0.98656    0.38573    1.000
    Si4366   Si       0.62020    0.99026    0.41727    1.000
    Si4367   Si       0.70120    0.98001    0.44423    1.000
    N4368    N        0.66184    0.98347    0.42348    1.000
    N4369    N        0.59153    0.98863    0.56187    1.000
    N4370    N        0.53216    0.99613    0.60845    1.000
    Si4371   Si       0.51629    0.98194    0.57134    1.000
    Si4372   Si       0.50251    0.00323    0.50289    1.000
    N4373    N        0.52684    0.00531    0.53837    1.000
    N4374    N        0.71117    0.97500    0.53020    1.000
    N4375    N        0.65996    0.97232    0.57847    1.000
    N4376    N        0.65121    0.97932    0.50752    1.000
    Si4377   Si       0.62699    0.99950    0.58656    1.000
    Si4378   Si       0.67237    0.95602    0.54015    1.000
    Si4379   Si       0.68513    0.00640    0.50783    1.000
    Si4380   Si       0.73647    0.95547    0.50074    1.000
    Si4381   Si       0.67177    0.94790    0.61322    1.000
    N4382    N        0.53693    0.96840    0.67443    1.000
    Si4383   Si       0.53842    0.95987    0.63055    1.000
    N4384    N        0.60317    0.96413    0.68872    1.000
    Si4385   Si       0.60417    0.00385    0.70598    1.000
    Si4386   Si       0.61370    0.95752    0.64635    1.000
    N4387    N        0.52448    0.00897    0.73591    1.000
    Si4388   Si       0.53347    0.00821    0.69497    1.000
    N4389    N        0.62693    0.99849    0.62957    1.000
    N4390    N        0.70758    0.96363    0.62976    1.000
    Si4391   Si       0.70889    0.00038    0.65211    1.000
    N4392    N        0.70482    0.99201    0.69516    1.000
    N4393    N        0.52313    0.96944    0.84005    1.000
    Si4394   Si       0.55640    0.98999    0.76584    1.000
    Si4395   Si       0.60106    0.96382    0.82549    1.000
    N4396    N        0.57181    0.95841    0.79303    1.000
    N4397    N        0.50496    0.96110    0.77721    1.000
    N4398    N        0.58335    0.96704    0.86497    1.000
    N4399    N        0.59572    0.00512    0.74937    1.000
    Si4400   Si       0.72684    0.99732    0.85194    1.000
    Si4401   Si       0.69582    0.97533    0.78234    1.000
    N4402    N        0.69393    0.98928    0.82297    1.000
    N4403    N        0.73187    0.98056    0.75751    1.000
    N4404    N        0.66405    0.99253    0.75690    1.000
    N4405    N        0.62421    0.99854    0.81395    1.000
    Si4406   Si       0.65726    0.00244    0.84160    1.000
    N4407    N        0.53623    0.96415    0.98310    1.000
    N4408    N        0.52551    0.96634    0.91397    1.000
    N4409    N        0.58650    0.97721    0.93287    1.000
    Si4410   Si       0.61185    0.96419    0.90053    1.000
    Si4411   Si       0.50608    0.00422    0.92605    1.000
    Si4412   Si       0.55351    0.95035    0.94301    1.000
    Si4413   Si       0.67589    0.98803    0.91123    1.000
    Si4414   Si       0.67429    0.95713    0.97711    1.000
    N4415    N        0.71233    0.97661    0.88918    1.000
    N4416    N        0.64601    0.98050    0.87788    1.000
    N4417    N        0.71684    0.96559    0.96926    1.000
    N4418    N        0.65624    0.95690    0.93772    1.000
    N4419    N        0.77014    0.04927    0.02443    1.000
    Si4420   Si       0.84455    0.05479    0.04624    1.000
    Si4421   Si       0.80734    0.02120    0.00338    1.000
    N4422    N        0.83202    0.06387    0.00494    1.000
    N4423    N        0.83222    0.01210    0.04939    1.000
    Si4424   Si       0.97031    0.03483    0.03606    1.000
    Si4425   Si       0.90499    0.04704    0.01026    1.000
    N4426    N        0.88624    0.05912    0.05212    1.000
    N4427    N        0.94603    0.06027    0.01224    1.000
    Si4428   Si       0.98382    0.06816    0.10114    1.000
    N4429    N        0.96429    0.03282    0.12465    1.000
    Si4430   Si       0.75014    0.01241    0.12051    1.000
    N4431    N        0.76899    0.04934    0.13550    1.000
    Si4432   Si       0.80789    0.05296    0.14896    1.000
    N4433    N        0.83418    0.02032    0.14402    1.000
    N4434    N        0.79712    0.02366    0.23244    1.000
    Si4435   Si       0.81317    0.06516    0.23271    1.000
    N4436    N        0.85449    0.06180    0.24541    1.000
    N4437    N        0.98765    0.04318    0.19766    1.000
    Si4438   Si       0.96037    0.06463    0.22423    1.000
    Si4439   Si       0.87668    0.02264    0.13875    1.000
    N4440    N        0.89756    0.06194    0.13367    1.000
    N4441    N        0.92051    0.06476    0.20647    1.000
    Si4442   Si       0.84220    0.04473    0.34394    1.000
    Si4443   Si       0.76041    0.01808    0.25262    1.000
    N4444    N        0.76548    0.01166    0.29535    1.000
    Si4445   Si       0.86783    0.03466    0.27697    1.000
    N4446    N        0.87612    0.05330    0.31618    1.000
    N4447    N        0.97235    0.04527    0.26328    1.000
    N4448    N        0.95652    0.02440    0.32145    1.000
    Si4449   Si       0.97987    0.06125    0.31250    1.000
    Si4450   Si       0.94653    0.01325    0.27922    1.000
    Si4451   Si       0.75901    0.04552    0.38538    1.000
    N4452    N        0.85480    0.04144    0.38687    1.000
    Si4453   Si       0.78691    0.03190    0.43888    1.000
    N4454    N        0.78934    0.04277    0.48191    1.000
    N4455    N        0.85911    0.05077    0.48296    1.000
    N4456    N        0.74540    0.04823    0.42684    1.000
    N4457    N        0.78227    0.01086    0.39358    1.000
    Si4458   Si       0.96369    0.06490    0.38122    1.000
    N4459    N        0.89990    0.06513    0.42843    1.000
    Si4460   Si       0.89964    0.03813    0.39125    1.000
    Si4461   Si       0.90177    0.05636    0.47163    1.000
    N4462    N        0.97218    0.02185    0.39245    1.000
    N4463    N        0.92140    0.01967    0.48597    1.000
    N4464    N        0.79432    0.04151    0.60134    1.000
    Si4465   Si       0.82903    0.03744    0.57687    1.000
    N4466    N        0.75441    0.03733    0.53265    1.000
    N4467    N        0.82318    0.01977    0.53863    1.000
    Si4468   Si       0.85965    0.02103    0.51459    1.000
    N4469    N        0.85952    0.01473    0.59891    1.000
    Si4470   Si       0.78727    0.01455    0.51454    1.000
    N4471    N        0.96321    0.06073    0.52402    1.000
    N4472    N        0.89028    0.03524    0.54086    1.000
    Si4473   Si       0.93586    0.02804    0.52672    1.000
    N4474    N        0.97990    0.03836    0.61206    1.000
    N4475    N        0.91638    0.06609    0.59725    1.000
    N4476    N        0.74918    0.02025    0.65141    1.000
    Si4477   Si       0.82693    0.03328    0.68481    1.000
    N4478    N        0.76800    0.02271    0.71447    1.000
    Si4479   Si       0.76042    0.04974    0.68113    1.000
    N4480    N        0.83258    0.02728    0.72797    1.000
    Si4481   Si       0.93810    0.04040    0.62287    1.000
    N4482    N        0.86647    0.02885    0.66833    1.000
    N4483    N        0.90648    0.04143    0.72754    1.000
    Si4484   Si       0.86720    0.04695    0.74364    1.000
    N4485    N        0.93058    0.05086    0.66472    1.000
    Si4486   Si       0.90479    0.02530    0.68729    1.000
    N4487    N        0.80795    0.03498    0.84350    1.000
    Si4488   Si       0.82090    0.06053    0.81000    1.000
    Si4489   Si       0.77112    0.05675    0.86014    1.000
    N4490    N        0.79263    0.05603    0.77759    1.000
    N4491    N        0.85797    0.05490    0.78756    1.000
    Si4492   Si       0.79463    0.02548    0.74901    1.000
    N4493    N        0.96955    0.04100    0.85463    1.000
    N4494    N        0.97519    0.03236    0.77639    1.000
    Si4495   Si       0.96014    0.02232    0.81533    1.000
    Si4496   Si       0.89663    0.05490    0.80808    1.000
    N4497    N        0.91669    0.01635    0.81064    1.000
    Si4498   Si       0.94284    0.05227    0.75016    1.000
    Si4499   Si       0.74494    0.06337    0.99179    1.000
    Si4500   Si       0.78734    0.06510    0.93960    1.000
    N4501    N        0.78538    0.02773    0.96400    1.000
    N4502    N        0.78942    0.04960    0.90027    1.000
    Si4503   Si       0.82465    0.02862    0.88353    1.000
    N4504    N        0.85894    0.04926    0.89963    1.000
    N4505    N        0.98619    0.06300    0.91228    1.000
    Si4506   Si       0.88828    0.03253    0.92944    1.000
    Si4507   Si       0.96240    0.02906    0.89828    1.000
    N4508    N        0.89569    0.05451    0.96721    1.000
    N4509    N        0.92254    0.04212    0.90524    1.000
    Si4510   Si       0.83378    0.11211    0.09693    1.000
    Si4511   Si       0.78209    0.08525    0.04786    1.000
    N4512    N        0.82125    0.08433    0.06674    1.000
    N4513    N        0.77387    0.12065    0.02477    1.000
    N4514    N        0.74818    0.07720    0.07681    1.000
    Si4515   Si       0.74563    0.08291    0.12103    1.000
    N4516    N        0.87684    0.11430    0.08893    1.000
    N4517    N        0.94334    0.08102    0.08386    1.000
    Si4518   Si       0.95870    0.11850    0.06742    1.000
    Si4519   Si       0.90067    0.07696    0.09138    1.000
    N4520    N        0.96441    0.12688    0.02555    1.000
    Si4521   Si       0.96935    0.09367    0.99513    1.000
    N4522    N        0.75539    0.12441    0.12407    1.000
    Si4523   Si       0.83383    0.10634    0.17576    1.000
    N4524    N        0.82602    0.09063    0.13406    1.000
    Si4525   Si       0.74305    0.09015    0.23326    1.000
    N4526    N        0.78443    0.09655    0.24251    1.000
    N4527    N        0.81468    0.06981    0.18966    1.000
    Si4528   Si       0.90862    0.08443    0.16794    1.000
    N4529    N        0.92589    0.12165    0.15935    1.000
    Si4530   Si       0.88573    0.08529    0.22665    1.000
    N4531    N        0.97226    0.10678    0.23440    1.000
    N4532    N        0.87344    0.10136    0.18847    1.000
    Si4533   Si       0.80513    0.11284    0.31670    1.000
    N4534    N        0.76037    0.11509    0.31720    1.000
    N4535    N        0.81503    0.07419    0.33090    1.000
    Si4536   Si       0.74332    0.11276    0.35742    1.000
    N4537    N        0.82866    0.12740    0.28173    1.000
    N4538    N        0.99070    0.08075    0.35129    1.000
    N4539    N        0.94628    0.08993    0.30773    1.000
    Si4540   Si       0.90866    0.08332    0.32913    1.000
    N4541    N        0.89755    0.11406    0.25654    1.000
    N4542    N        0.88206    0.11842    0.32640    1.000
    N4543    N        0.92240    0.06735    0.36776    1.000
    Si4544   Si       0.82293    0.07291    0.47256    1.000
    N4545    N        0.77177    0.08846    0.37915    1.000
    N4546    N        0.84917    0.10796    0.39380    1.000
    Si4547   Si       0.80422    0.10421    0.40165    1.000
    N4548    N        0.84968    0.10704    0.45407    1.000
    N4549    N        0.79841    0.10374    0.49133    1.000
    Si4550   Si       0.85598    0.07385    0.42055    1.000
    N4551    N        0.81154    0.06850    0.42923    1.000
    N4552    N        0.96586    0.09178    0.41436    1.000
    Si4553   Si       0.92711    0.09975    0.43578    1.000
    N4554    N        0.92827    0.09101    0.47777    1.000
    N4555    N        0.77822    0.09241    0.55002    1.000
    Si4556   Si       0.82770    0.11708    0.58372    1.000
    N4557    N        0.84385    0.07746    0.57082    1.000
    N4558    N        0.79667    0.11185    0.61650    1.000
    Si4559   Si       0.77592    0.07964    0.59213    1.000
    Si4560   Si       0.76476    0.07310    0.51178    1.000
    Si4561   Si       0.94216    0.09870    0.51753    1.000
    N4562    N        0.90853    0.10631    0.54531    1.000
    Si4563   Si       0.88816    0.07360    0.56500    1.000
    Si4564   Si       0.81170    0.10305    0.65796    1.000
    N4565    N        0.85470    0.11052    0.65836    1.000
    N4566    N        0.86121    0.08854    0.73224    1.000
    N4567    N        0.80040    0.06734    0.67756    1.000
    N4568    N        0.91230    0.11484    0.69222    1.000
    Si4569   Si       0.94504    0.08514    0.68362    1.000
    N4570    N        0.96530    0.07311    0.71972    1.000
    Si4571   Si       0.86953    0.11383    0.69826    1.000
    N4572    N        0.96812    0.11786    0.66510    1.000
    Si4573   Si       0.98612    0.10846    0.73987    1.000
    N4574    N        0.82750    0.10303    0.81340    1.000
    N4575    N        0.76572    0.09931    0.85076    1.000
    Si4576   Si       0.84503    0.10228    0.77228    1.000
    Si4577   Si       0.86243    0.11352    0.84093    1.000
    Si4578   Si       0.79019    0.12488    0.82446    1.000
    N4579    N        0.92419    0.07675    0.78290    1.000
    N4580    N        0.89054    0.08013    0.84397    1.000
    Si4581   Si       0.92481    0.11996    0.78295    1.000
    N4582    N        0.83474    0.11877    0.87577    1.000
    N4583    N        0.75414    0.08680    0.95630    1.000
    Si4584   Si       0.84688    0.09031    0.90729    1.000
    N4585    N        0.82320    0.08931    0.94188    1.000
    Si4586   Si       0.83493    0.10219    0.98197    1.000
    N4587    N        0.94306    0.10458    0.88463    1.000
    N4588    N        0.87554    0.11484    0.98811    1.000
    N4589    N        0.94662    0.10605    0.96007    1.000
    Si4590   Si       0.97733    0.07978    0.87243    1.000
    Si4591   Si       0.90329    0.09715    0.95797    1.000
    Si4592   Si       0.90614    0.07650    0.88374    1.000
    N4593    N        0.88715    0.10498    0.91674    1.000
    N4594    N        0.81898    0.15311    0.10415    1.000
    Si4595   Si       0.79837    0.15943    0.01772    1.000
    N4596    N        0.83843    0.16244    0.03499    1.000
    Si4597   Si       0.82769    0.18347    0.07376    1.000
    N4598    N        0.78285    0.17860    0.05731    1.000
    Si4599   Si       0.87145    0.15221    0.00825    1.000
    N4600    N        0.90639    0.15794    0.03389    1.000
    Si4601   Si       0.89409    0.15207    0.07747    1.000
    Si4602   Si       0.94597    0.16497    0.02098    1.000
    N4603    N        0.93712    0.14728    0.09107    1.000
    N4604    N        0.87341    0.18910    0.08605    1.000
    Si4605   Si       0.79051    0.14904    0.13589    1.000
    N4606    N        0.81487    0.14426    0.17128    1.000
    N4607    N        0.82671    0.17303    0.23485    1.000
    Si4608   Si       0.83368    0.17898    0.19113    1.000
    N4609    N        0.76175    0.18110    0.14702    1.000
    N4610    N        0.92813    0.16203    0.22138    1.000
    Si4611   Si       0.94970    0.14761    0.13330    1.000
    Si4612   Si       0.91272    0.16009    0.17995    1.000
    N4613    N        0.87660    0.18418    0.18438    1.000
    N4614    N        0.93906    0.18469    0.15468    1.000
    N4615    N        0.81510    0.14121    0.34807    1.000
    Si4616   Si       0.78780    0.17169    0.36118    1.000
    N4617    N        0.76325    0.15962    0.25794    1.000
    Si4618   Si       0.85675    0.13245    0.36013    1.000
    Si4619   Si       0.80120    0.13724    0.25038    1.000
    N4620    N        0.94483    0.15242    0.28932    1.000
    N4621    N        0.94721    0.14170    0.36309    1.000
    N4622    N        0.87980    0.17675    0.28031    1.000
    Si4623   Si       0.87112    0.13368    0.28685    1.000
    Si4624   Si       0.96151    0.12866    0.32168    1.000
    Si4625   Si       0.93931    0.13340    0.25065    1.000
    Si4626   Si       0.91694    0.17367    0.37133    1.000
    N4627    N        0.74912    0.15377    0.37438    1.000
    N4628    N        0.79026    0.13578    0.42874    1.000
    Si4629   Si       0.75398    0.15984    0.42024    1.000
    Si4630   Si       0.81901    0.13854    0.46469    1.000
    N4631    N        0.84968    0.16666    0.44790    1.000
    N4632    N        0.79967    0.16693    0.49218    1.000
    N4633    N        0.97350    0.15811    0.42965    1.000
    Si4634   Si       0.93249    0.17313    0.44083    1.000
    N4635    N        0.87174    0.16640    0.37988    1.000
    Si4636   Si       0.97779    0.13116    0.39416    1.000
    Si4637   Si       0.86731    0.13810    0.42262    1.000
    N4638    N        0.91012    0.13663    0.42942    1.000
    N4639    N        0.81744    0.14624    0.55292    1.000
    Si4640   Si       0.78590    0.13277    0.52323    1.000
    Si4641   Si       0.84059    0.18283    0.54878    1.000
    N4642    N        0.74209    0.13816    0.51589    1.000
    N4643    N        0.78815    0.18647    0.60792    1.000
    N4644    N        0.86680    0.13372    0.59354    1.000
    N4645    N        0.87671    0.17017    0.53004    1.000
    Si4646   Si       0.96670    0.16101    0.56057    1.000
    N4647    N        0.92692    0.16555    0.58000    1.000
    Si4648   Si       0.89465    0.14455    0.56142    1.000
    N4649    N        0.96572    0.13434    0.52671    1.000
    Si4650   Si       0.78003    0.15068    0.63372    1.000
    Si4651   Si       0.82753    0.16969    0.68671    1.000
    N4652    N        0.79708    0.14225    0.67280    1.000
    N4653    N        0.84286    0.17581    0.64524    1.000
    N4654    N        0.75069    0.13536    0.72216    1.000
    N4655    N        0.86288    0.15628    0.70865    1.000
    Si4656   Si       0.87028    0.14392    0.63637    1.000
    Si4657   Si       0.94197    0.17350    0.74011    1.000
    N4658    N        0.93611    0.18314    0.69951    1.000
    Si4659   Si       0.93728    0.14822    0.67006    1.000
    N4660    N        0.90685    0.16451    0.64462    1.000
    N4661    N        0.80682    0.16257    0.83521    1.000
    Si4662   Si       0.77788    0.14360    0.75620    1.000
    N4663    N        0.82025    0.13644    0.75573    1.000
    Si4664   Si       0.85798    0.16082    0.75532    1.000
    N4665    N        0.75943    0.12832    0.79189    1.000
    N4666    N        0.77595    0.18535    0.75887    1.000
    N4667    N        0.88931    0.14572    0.85659    1.000
    Si4668   Si       0.92511    0.16582    0.84231    1.000
    N4669    N        0.94479    0.13550    0.81554    1.000
    N4670    N        0.87999    0.12903    0.77988    1.000
    N4671    N        0.95150    0.13242    0.75074    1.000
    Si4672   Si       0.98723    0.12675    0.81270    1.000
    N4673    N        0.89837    0.18547    0.74864    1.000
    Si4674   Si       0.83637    0.17486    0.95305    1.000
    N4675    N        0.85030    0.16639    0.91452    1.000
    Si4676   Si       0.82298    0.16270    0.87727    1.000
    Si4677   Si       0.74911    0.17567    0.89724    1.000
    N4678    N        0.81627    0.14400    0.97845    1.000
    N4679    N        0.74342    0.13594    0.91184    1.000
    N4680    N        0.79079    0.18441    0.89847    1.000
    N4681    N        0.94474    0.18577    0.98142    1.000
    Si4682   Si       0.88521    0.14734    0.90020    1.000
    N4683    N        0.87261    0.18125    0.97633    1.000
    N4684    N        0.91820    0.16118    0.92476    1.000
    Si4685   Si       0.95216    0.13186    0.92045    1.000
    N4686    N        0.98939    0.15295    0.91046    1.000
    N4687    N        0.81992    0.22575    0.06722    1.000
    Si4688   Si       0.78908    0.22181    0.03646    1.000
    N4689    N        0.74812    0.23269    0.04786    1.000
    N4690    N        0.93984    0.22218    0.09388    1.000
    Si4691   Si       0.89593    0.22353    0.09759    1.000
    Si4692   Si       0.96020    0.23217    0.05670    1.000
    N4693    N        0.97181    0.19451    0.03862    1.000
    N4694    N        0.92545    0.24771    0.03105    1.000
    Si4695   Si       0.73949    0.19092    0.23946    1.000
    Si4696   Si       0.77591    0.21197    0.17166    1.000
    N4697    N        0.81794    0.21483    0.17212    1.000
    N4698    N        0.75871    0.21734    0.21087    1.000
    Si4699   Si       0.88520    0.22720    0.17930    1.000
    Si4700   Si       0.94266    0.22701    0.13846    1.000
    N4701    N        0.98789    0.22545    0.14180    1.000
    N4702    N        0.92106    0.23460    0.20267    1.000
    N4703    N        0.98145    0.20052    0.20795    1.000
    N4704    N        0.86425    0.23753    0.24146    1.000
    Si4705   Si       0.94174    0.20147    0.22272    1.000
    N4706    N        0.89449    0.23491    0.13876    1.000
    Si4707   Si       0.78363    0.22108    0.30192    1.000
    N4708    N        0.82448    0.21774    0.29072    1.000
    Si4709   Si       0.85049    0.19921    0.25970    1.000
    N4710    N        0.76699    0.19499    0.33132    1.000
    N4711    N        0.85075    0.23481    0.34933    1.000
    N4712    N        0.93575    0.21656    0.26508    1.000
    N4713    N        0.91505    0.20050    0.33591    1.000
    Si4714   Si       0.97203    0.23506    0.27950    1.000
    Si4715   Si       0.92237    0.24448    0.33228    1.000
    Si4716   Si       0.91942    0.18745    0.29589    1.000
    Si4717   Si       0.84841    0.20543    0.38086    1.000
    N4718    N        0.74745    0.20237    0.42123    1.000
    N4719    N        0.80996    0.21912    0.45661    1.000
    N4720    N        0.80760    0.19574    0.39207    1.000
    Si4721   Si       0.78535    0.22345    0.42050    1.000
    Si4722   Si       0.85027    0.20845    0.45057    1.000
    Si4723   Si       0.79641    0.20924    0.49599    1.000
    N4724    N        0.76418    0.23789    0.49612    1.000
    N4725    N        0.92745    0.19877    0.40492    1.000
    N4726    N        0.98960    0.23514    0.43932    1.000
    N4727    N        0.86582    0.23050    0.41207    1.000
    N4728    N        0.87611    0.22587    0.48055    1.000
    Si4729   Si       0.91174    0.23835    0.40828    1.000
    N4730    N        0.93310    0.18942    0.48161    1.000
    Si4731   Si       0.76554    0.21477    0.58622    1.000
    N4732    N        0.82103    0.21621    0.53091    1.000
    N4733    N        0.85449    0.20342    0.58481    1.000
    N4734    N        0.74580    0.20202    0.55000    1.000
    Si4735   Si       0.82604    0.20413    0.61688    1.000
    N4736    N        0.90802    0.22931    0.53955    1.000
    Si4737   Si       0.88787    0.23129    0.57828    1.000
    N4738    N        0.91958    0.23041    0.60849    1.000
    Si4739   Si       0.89752    0.20196    0.50757    1.000
    N4740    N        0.97739    0.20008    0.54527    1.000
    Si4741   Si       0.96957    0.20649    0.50394    1.000
    Si4742   Si       0.92805    0.18787    0.61627    1.000
    N4743    N        0.74419    0.20620    0.70063    1.000
    Si4744   Si       0.83727    0.24140    0.68251    1.000
    N4745    N        0.81537    0.20778    0.70036    1.000
    Si4746   Si       0.78025    0.21230    0.72503    1.000
    N4747    N        0.82282    0.23994    0.64167    1.000
    Si4748   Si       0.89320    0.18740    0.70579    1.000
    N4749    N        0.87872    0.22892    0.69203    1.000
    N4750    N        0.96650    0.18772    0.64008    1.000
    Si4751   Si       0.96319    0.21017    0.67891    1.000
    Si4752   Si       0.82389    0.20025    0.82362    1.000
    N4753    N        0.79235    0.22989    0.81853    1.000
    Si4754   Si       0.76742    0.22208    0.78470    1.000
    N4755    N        0.83928    0.21129    0.86291    1.000
    N4756    N        0.84911    0.19191    0.78874    1.000
    Si4757   Si       0.94039    0.22656    0.84659    1.000
    Si4758   Si       0.88882    0.20921    0.78373    1.000
    N4759    N        0.96767    0.20003    0.76218    1.000
    N4760    N        0.91209    0.20074    0.81802    1.000
    N4761    N        0.97102    0.23391    0.81513    1.000
    Si4762   Si       0.95020    0.23754    0.77603    1.000
    N4763    N        0.95076    0.18945    0.86673    1.000
    Si4764   Si       0.81466    0.22254    0.90123    1.000
    Si4765   Si       0.79144    0.22978    0.97214    1.000
    N4766    N        0.82350    0.21638    0.94637    1.000
    N4767    N        0.78234    0.19707    0.99840    1.000
    N4768    N        0.75836    0.24283    0.94943    1.000
    Si4769   Si       0.86195    0.24299    0.94835    1.000
    Si4770   Si       0.90956    0.19133    0.95808    1.000
    Si4771   Si       0.97989    0.20764    0.97047    1.000
    Si4772   Si       0.98525    0.19052    0.89335    1.000
    N4773    N        0.97701    0.21596    0.92763    1.000
    N4774    N        0.90395    0.23356    0.95622    1.000
    Si4775   Si       0.83322    0.26170    0.08549    1.000
    N4776    N        0.81011    0.29658    0.07225    1.000
    Si4777   Si       0.82896    0.28659    0.00598    1.000
    N4778    N        0.80615    0.25126    0.00829    1.000
    N4779    N        0.87016    0.28976    0.02444    1.000
    N4780    N        0.87619    0.26124    0.08515    1.000
    Si4781   Si       0.90034    0.27657    0.05224    1.000
    N4782    N        0.92439    0.30480    0.07005    1.000
    Si4783   Si       0.74656    0.28417    0.13451    1.000
    N4784    N        0.74661    0.28218    0.23313    1.000
    N4785    N        0.82880    0.26912    0.12887    1.000
    N4786    N        0.80877    0.27756    0.20890    1.000
    N4787    N        0.76697    0.25350    0.16128    1.000
    Si4788   Si       0.81357    0.25841    0.16866    1.000
    Si4789   Si       0.85079    0.27571    0.22182    1.000
    N4790    N        0.94705    0.27150    0.15534    1.000
    N4791    N        0.86308    0.26737    0.18039    1.000
    N4792    N        0.98509    0.27376    0.20514    1.000
    Si4793   Si       0.87232    0.27352    0.13675    1.000
    N4794    N        0.92984    0.28218    0.24580    1.000
    Si4795   Si       0.94099    0.27423    0.20167    1.000
    N4796    N        0.76490    0.25880    0.29557    1.000
    N4797    N        0.82741    0.28814    0.30131    1.000
    Si4798   Si       0.78406    0.29327    0.31080    1.000
    Si4799   Si       0.84916    0.25015    0.30884    1.000
    N4800    N        0.77874    0.29260    0.35334    1.000
    N4801    N        0.89363    0.25226    0.29956    1.000
    Si4802   Si       0.90446    0.24837    0.25807    1.000
    N4803    N        0.96579    0.24419    0.32399    1.000
    Si4804   Si       0.84446    0.26993    0.41483    1.000
    N4805    N        0.85154    0.28283    0.45669    1.000
    N4806    N        0.80201    0.26268    0.41088    1.000
    Si4807   Si       0.78162    0.29842    0.39502    1.000
    N4808    N        0.86535    0.29878    0.38933    1.000
    N4809    N        0.92025    0.26336    0.37287    1.000
    N4810    N        0.92153    0.26337    0.44087    1.000
    N4811    N        0.98045    0.30372    0.45313    1.000
    Si4812   Si       0.96299    0.26417    0.45898    1.000
    Si4813   Si       0.88936    0.26688    0.47093    1.000
    N4814    N        0.95981    0.25018    0.49954    1.000
    N4815    N        0.81503    0.28059    0.52404    1.000
    Si4816   Si       0.77419    0.27973    0.51128    1.000
    Si4817   Si       0.82644    0.25337    0.55789    1.000
    N4818    N        0.86166    0.26583    0.58275    1.000
    N4819    N        0.74423    0.27467    0.54170    1.000
    N4820    N        0.79246    0.24919    0.58545    1.000
    Si4821   Si       0.86589    0.29484    0.61490    1.000
    N4822    N        0.95083    0.27841    0.56188    1.000
    Si4823   Si       0.93005    0.26499    0.52645    1.000
    Si4824   Si       0.95054    0.26081    0.60259    1.000
    N4825    N        0.90068    0.29161    0.50660    1.000
    Si4826   Si       0.79659    0.27036    0.62334    1.000
    N4827    N        0.75521    0.27554    0.63803    1.000
    N4828    N        0.81784    0.27840    0.69589    1.000
    Si4829   Si       0.80816    0.27881    0.73753    1.000
    Si4830   Si       0.74531    0.30101    0.67104    1.000
    Si4831   Si       0.74491    0.29950    0.74416    1.000
    N4832    N        0.90538    0.29429    0.71928    1.000
    Si4833   Si       0.94903    0.29975    0.73448    1.000
    N4834    N        0.94744    0.25064    0.67914    1.000
    N4835    N        0.94928    0.29444    0.63011    1.000
    Si4836   Si       0.97133    0.28554    0.66728    1.000
    Si4837   Si       0.90499    0.26339    0.68417    1.000
    N4838    N        0.88056    0.28421    0.65506    1.000
    N4839    N        0.84072    0.27620    0.84332    1.000
    Si4840   Si       0.79875    0.26525    0.84481    1.000
    N4841    N        0.76864    0.29546    0.83330    1.000
    N4842    N        0.84571    0.27071    0.75454    1.000
    N4843    N        0.78176    0.24668    0.75083    1.000
    Si4844   Si       0.86565    0.24766    0.86710    1.000
    Si4845   Si       0.88726    0.28131    0.75666    1.000
    N4846    N        0.90750    0.25326    0.85928    1.000
    N4847    N        0.90806    0.24719    0.77177    1.000
    Si4848   Si       0.93177    0.28656    0.86896    1.000
    N4849    N        0.96945    0.26323    0.74669    1.000
    Si4850   Si       0.99107    0.26866    0.83442    1.000
    Si4851   Si       0.76481    0.27384    0.91852    1.000
    N4852    N        0.85303    0.28220    0.96543    1.000
    N4853    N        0.78712    0.25319    0.88732    1.000
    N4854    N        0.84901    0.25888    0.90703    1.000
    Si4855   Si       0.83365    0.29514    0.92805    1.000
    N4856    N        0.79210    0.29923    0.93980    1.000
    N4857    N        0.92399    0.29264    0.97412    1.000
    N4858    N        0.97490    0.24998    0.98527    1.000
    Si4859   Si       0.93130    0.25072    0.98708    1.000
    N4860    N        0.96745    0.25967    0.87222    1.000
    Si4861   Si       0.98651    0.25628    0.91223    1.000
    N4862    N        0.97913    0.29508    0.93339    1.000
    Si4863   Si       0.88457    0.30298    0.98626    1.000
    Si4864   Si       0.78530    0.32052    0.04513    1.000
    Si4865   Si       0.80338    0.32623    0.10429    1.000
    N4866    N        0.79959    0.31936    0.00428    1.000
    N4867    N        0.79726    0.35534    0.07017    1.000
    N4868    N        0.74363    0.30664    0.04049    1.000
    Si4869   Si       0.95200    0.33286    0.08524    1.000
    N4870    N        0.75997    0.32227    0.12062    1.000
    N4871    N        0.77135    0.33667    0.18777    1.000
    N4872    N        0.82830    0.34242    0.13463    1.000
    Si4873   Si       0.78137    0.30795    0.22298    1.000
    Si4874   Si       0.80259    0.36165    0.16512    1.000
    Si4875   Si       0.87150    0.35050    0.12551    1.000
    N4876    N        0.92871    0.32153    0.19566    1.000
    Si4877   Si       0.90966    0.32150    0.23956    1.000
    Si4878   Si       0.92798    0.31029    0.15247    1.000
    N4879    N        0.97713    0.33588    0.24116    1.000
    N4880    N        0.95376    0.33253    0.12789    1.000
    N4881    N        0.88863    0.31150    0.13360    1.000
    N4882    N        0.86741    0.30912    0.24357    1.000
    Si4883   Si       0.95756    0.35490    0.20828    1.000
    Si4884   Si       0.83939    0.31985    0.27412    1.000
    N4885    N        0.76193    0.32854    0.29980    1.000
    N4886    N        0.85661    0.34861    0.30071    1.000
    N4887    N        0.80293    0.33162    0.25130    1.000
    Si4888   Si       0.77747    0.35817    0.27197    1.000
    Si4889   Si       0.95807    0.34376    0.35012    1.000
    N4890    N        0.91787    0.32679    0.34421    1.000
    N4891    N        0.98016    0.35228    0.31303    1.000
    Si4892   Si       0.88702    0.35428    0.33135    1.000
    N4893    N        0.92061    0.35907    0.25530    1.000
    Si4894   Si       0.96194    0.36086    0.27367    1.000
    Si4895   Si       0.74327    0.31373    0.45808    1.000
    N4896    N        0.80588    0.33278    0.40503    1.000
    Si4897   Si       0.85019    0.33708    0.39716    1.000
    Si4898   Si       0.82703    0.30272    0.48731    1.000
    N4899    N        0.78248    0.30700    0.47815    1.000
    N4900    N        0.74229    0.30610    0.41474    1.000
    N4901    N        0.84726    0.33968    0.49848    1.000
    Si4902   Si       0.96547    0.32900    0.42133    1.000
    N4903    N        0.97961    0.32275    0.38138    1.000
    N4904    N        0.86362    0.35662    0.43290    1.000
    N4905    N        0.92161    0.32898    0.41470    1.000
    Si4906   Si       0.90735    0.30400    0.38103    1.000
    N4907    N        0.76578    0.32867    0.58467    1.000
    Si4908   Si       0.80424    0.33976    0.60331    1.000
    N4909    N        0.83275    0.35449    0.57187    1.000
    Si4910   Si       0.88974    0.33580    0.50858    1.000
    N4911    N        0.88975    0.32870    0.60305    1.000
    Si4912   Si       0.87729    0.36282    0.57835    1.000
    N4913    N        0.82253    0.30754    0.62805    1.000
    Si4914   Si       0.81984    0.31495    0.67210    1.000
    N4915    N        0.77937    0.32869    0.67476    1.000
    N4916    N        0.85086    0.34134    0.68956    1.000
    Si4917   Si       0.89108    0.33270    0.69915    1.000
    N4918    N        0.91756    0.34537    0.66652    1.000
    Si4919   Si       0.92854    0.33254    0.62631    1.000
    N4920    N        0.97365    0.31145    0.70128    1.000
    N4921    N        0.82004    0.33337    0.80685    1.000
    Si4922   Si       0.78192    0.33622    0.82699    1.000
    Si4923   Si       0.81222    0.34863    0.76638    1.000
    Si4924   Si       0.85440    0.31235    0.82507    1.000
    N4925    N        0.78740    0.31450    0.75062    1.000
    N4926    N        0.79136    0.36329    0.86034    1.000
    N4927    N        0.86488    0.34247    0.85571    1.000
    N4928    N        0.88488    0.30931    0.79249    1.000
    Si4929   Si       0.96294    0.34900    0.85362    1.000
    Si4930   Si       0.92006    0.33011    0.80051    1.000
    N4931    N        0.94797    0.32450    0.76959    1.000
    N4932    N        0.94024    0.31380    0.83699    1.000
    Si4933   Si       0.98878    0.33486    0.78407    1.000
    N4934    N        0.83973    0.33689    0.91623    1.000
    Si4935   Si       0.77853    0.33263    0.96764    1.000
    Si4936   Si       0.86178    0.35704    0.94438    1.000
    Si4937   Si       0.83116    0.36252    0.87918    1.000
    N4938    N        0.91739    0.31025    0.90166    1.000
    Si4939   Si       0.93990    0.31342    0.93883    1.000
    Si4940   Si       0.89669    0.34726    0.88496    1.000
    N4941    N        0.87977    0.34392    0.98132    1.000
    N4942    N        0.94771    0.35556    0.94641    1.000
    N4943    N        0.83981    0.38444    0.02174    1.000
    Si4944   Si       0.83124    0.38089    0.06393    1.000
    N4945    N        0.86918    0.36546    0.08389    1.000
    N4946    N        0.90777    0.40088    0.02218    1.000
    Si4947   Si       0.95163    0.40930    0.09530    1.000
    Si4948   Si       0.90155    0.38938    0.06426    1.000
    N4949    N        0.94161    0.37118    0.07267    1.000
    N4950    N        0.97581    0.39889    0.99916    1.000
    N4951    N        0.82968    0.38107    0.19383    1.000
    Si4952   Si       0.83985    0.41367    0.21963    1.000
    N4953    N        0.77563    0.38869    0.14344    1.000
    Si4954   Si       0.74386    0.36336    0.12245    1.000
    N4955    N        0.94330    0.39318    0.19926    1.000
    N4956    N        0.89300    0.38105    0.14788    1.000
    Si4957   Si       0.92281    0.40836    0.16055    1.000
    N4958    N        0.95954    0.40514    0.13652    1.000
    Si4959   Si       0.84400    0.39263    0.29672    1.000
    N4960    N        0.80145    0.39200    0.28536    1.000
    N4961    N        0.86094    0.40215    0.25799    1.000
    N4962    N        0.74468    0.37701    0.24929    1.000
    N4963    N        0.86170    0.36441    0.36526    1.000
    Si4964   Si       0.83793    0.40102    0.36885    1.000
    N4965    N        0.84066    0.42119    0.32999    1.000
    N4966    N        0.73996    0.37181    0.34567    1.000
    N4967    N        0.97278    0.40246    0.26318    1.000
    N4968    N        0.90425    0.39139    0.31306    1.000
    Si4969   Si       0.90281    0.39855    0.26742    1.000
    Si4970   Si       0.93170    0.41216    0.34000    1.000
    N4971    N        0.94661    0.38257    0.36781    1.000
    Si4972   Si       0.75529    0.40338    0.37232    1.000
    N4973    N        0.79805    0.39612    0.37849    1.000
    N4974    N        0.79900    0.37446    0.45748    1.000
    Si4975   Si       0.84068    0.37059    0.46860    1.000
    Si4976   Si       0.76937    0.37650    0.48887    1.000
    N4977    N        0.74766    0.38095    0.41315    1.000
    Si4978   Si       0.79024    0.37229    0.41395    1.000
    N4979    N        0.86013    0.40786    0.47416    1.000
    N4980    N        0.74989    0.41421    0.47620    1.000
    Si4981   Si       0.90672    0.36315    0.44120    1.000
    Si4982   Si       0.95464    0.39860    0.40772    1.000
    N4983    N        0.91468    0.40316    0.42587    1.000
    N4984    N        0.97380    0.36884    0.43301    1.000
    N4985    N        0.91563    0.36112    0.48378    1.000
    Si4986   Si       0.81469    0.38962    0.55236    1.000
    Si4987   Si       0.77096    0.40988    0.61251    1.000
    N4988    N        0.78063    0.37430    0.53196    1.000
    Si4989   Si       0.75008    0.36243    0.56194    1.000
    N4990    N        0.79338    0.42074    0.57693    1.000
    N4991    N        0.96001    0.36064    0.61733    1.000
    N4992    N        0.88466    0.39949    0.59867    1.000
    N4993    N        0.97336    0.38906    0.52077    1.000
    Si4994   Si       0.92862    0.38897    0.51741    1.000
    N4995    N        0.90179    0.36102    0.54263    1.000
    N4996    N        0.79193    0.37513    0.62690    1.000
    Si4997   Si       0.77550    0.37124    0.66673    1.000
    Si4998   Si       0.83959    0.38317    0.71027    1.000
    N4999    N        0.79798    0.38682    0.70101    1.000
    N5000    N        0.97061    0.37746    0.70866    1.000
    N5001    N        0.90595    0.36899    0.72314    1.000
    Si5002   Si       0.96713    0.40057    0.62779    1.000
    Si5003   Si       0.98410    0.40963    0.73178    1.000
    N5004    N        0.93218    0.41319    0.65668    1.000
    Si5005   Si       0.93276    0.37963    0.68952    1.000
    Si5006   Si       0.77285    0.40225    0.85751    1.000
    N5007    N        0.78300    0.38046    0.77536    1.000
    N5008    N        0.84656    0.37000    0.75023    1.000
    Si5009   Si       0.79283    0.42143    0.79041    1.000
    N5010    N        0.80224    0.42299    0.83252    1.000
    N5011    N        0.90440    0.37150    0.79974    1.000
    Si5012   Si       0.90988    0.39855    0.83354    1.000
    Si5013   Si       0.88756    0.38465    0.76026    1.000
    Si5014   Si       0.97960    0.40953    0.81184    1.000
    N5015    N        0.92731    0.37215    0.86389    1.000
    N5016    N        0.98088    0.36599    0.81600    1.000
    N5017    N        0.96545    0.41763    0.77185    1.000
    Si5018   Si       0.81676    0.39972    0.98726    1.000
    N5019    N        0.84147    0.40376    0.88874    1.000
    N5020    N        0.78047    0.37873    0.97270    1.000
    N5021    N        0.85147    0.39570    0.96073    1.000
    N5022    N        0.89198    0.37448    0.91858    1.000
    N5023    N        0.96839    0.40628    0.90582    1.000
    Si5024   Si       0.98140    0.36477    0.97301    1.000
    Si5025   Si       0.87114    0.41541    0.91969    1.000
    Si5026   Si       0.93150    0.39316    0.92655    1.000
    Si5027   Si       0.87662    0.38476    0.99597    1.000
    N5028    N        0.77901    0.44357    0.10532    1.000
    Si5029   Si       0.83512    0.44640    0.03718    1.000
    Si5030   Si       0.82682    0.45726    0.10641    1.000
    N5031    N        0.83389    0.42254    0.07587    1.000
    N5032    N        0.74291    0.45702    0.05660    1.000
    Si5033   Si       0.74027    0.42747    0.08892    1.000
    N5034    N        0.81798    0.44170    0.99640    1.000
    Si5035   Si       0.93604    0.42087    0.99898    1.000
    N5036    N        0.86868    0.47412    0.10859    1.000
    N5037    N        0.97865    0.43062    0.06908    1.000
    N5038    N        0.87720    0.46228    0.03916    1.000
    Si5039   Si       0.89587    0.46441    0.07650    1.000
    N5040    N        0.95463    0.45828    0.01604    1.000
    Si5041   Si       0.96611    0.46984    0.05702    1.000
    N5042    N        0.91086    0.42504    0.08736    1.000
    N5043    N        0.82511    0.45018    0.15212    1.000
    N5044    N        0.76542    0.46607    0.16699    1.000
    Si5045   Si       0.78455    0.43137    0.14790    1.000
    N5046    N        0.80308    0.43279    0.23036    1.000
    Si5047   Si       0.83360    0.47539    0.18808    1.000
    N5048    N        0.86357    0.45053    0.20999    1.000
    Si5049   Si       0.88846    0.48094    0.14586    1.000
    Si5050   Si       0.89500    0.47140    0.23410    1.000
    N5051    N        0.97168    0.45773    0.20736    1.000
    N5052    N        0.91677    0.45212    0.16211    1.000
    Si5053   Si       0.95304    0.42490    0.22907    1.000
    Si5054   Si       0.82416    0.46032    0.32926    1.000
    Si5055   Si       0.79397    0.43453    0.27165    1.000
    N5056    N        0.81565    0.46831    0.28841    1.000
    N5057    N        0.75081    0.44071    0.27644    1.000
    Si5058   Si       0.75018    0.47191    0.36920    1.000
    N5059    N        0.79215    0.48134    0.35464    1.000
    N5060    N        0.98930    0.47279    0.28270    1.000
    N5061    N        0.97157    0.42725    0.32824    1.000
    N5062    N        0.91066    0.44174    0.36422    1.000
    Si5063   Si       0.99068    0.44371    0.36290    1.000
    N5064    N        0.91674    0.43604    0.24905    1.000
    N5065    N        0.75776    0.44312    0.40331    1.000
    N5066    N        0.85415    0.42258    0.40049    1.000
    N5067    N        0.80790    0.45214    0.45443    1.000
    Si5068   Si       0.84805    0.43681    0.44281    1.000
    Si5069   Si       0.76570    0.44467    0.44731    1.000
    N5070    N        0.85720    0.47430    0.49393    1.000
    N5071    N        0.74077    0.47765    0.46325    1.000
    N5072    N        0.88117    0.46698    0.43550    1.000
    Si5073   Si       0.89664    0.43713    0.40471    1.000
    N5074    N        0.98580    0.42843    0.40140    1.000
    Si5075   Si       0.81877    0.45391    0.56094    1.000
    N5076    N        0.84187    0.42277    0.53946    1.000
    N5077    N        0.82124    0.47515    0.59784    1.000
    N5078    N        0.79958    0.47750    0.52903    1.000
    Si5079   Si       0.86727    0.43480    0.50838    1.000
    N5080    N        0.97249    0.45447    0.53493    1.000
    Si5081   Si       0.96784    0.46196    0.57900    1.000
    Si5082   Si       0.93128    0.46490    0.52900    1.000
    N5083    N        0.95202    0.42701    0.59867    1.000
    N5084    N        0.90990    0.42878    0.51934    1.000
    Si5085   Si       0.91233    0.42708    0.61751    1.000
    N5086    N        0.89430    0.46522    0.62116    1.000
    N5087    N        0.79126    0.47195    0.71467    1.000
    Si5088   Si       0.82591    0.45297    0.73368    1.000
    N5089    N        0.76644    0.44531    0.63757    1.000
    Si5090   Si       0.75089    0.46346    0.73375    1.000
    N5091    N        0.85009    0.42514    0.70477    1.000
    N5092    N        0.83790    0.48115    0.66317    1.000
    N5093    N        0.90744    0.47589    0.68612    1.000
    Si5094   Si       0.94112    0.45053    0.67688    1.000
    N5095    N        0.97389    0.47125    0.65817    1.000
    Si5096   Si       0.86744    0.46310    0.69040    1.000
    N5097    N        0.95557    0.43940    0.71624    1.000
    N5098    N        0.82997    0.43853    0.77328    1.000
    N5099    N        0.76138    0.44711    0.77382    1.000
    Si5100   Si       0.83787    0.43174    0.85555    1.000
    N5101    N        0.87268    0.42365    0.82999    1.000
    Si5102   Si       0.86959    0.44604    0.79363    1.000
    N5103    N        0.89698    0.42728    0.76376    1.000
    Si5104   Si       0.93481    0.44485    0.75349    1.000
    N5105    N        0.94617    0.42574    0.83423    1.000
    N5106    N        0.82920    0.46984    0.87522    1.000
    Si5107   Si       0.83414    0.47171    0.96894    1.000
    N5108    N        0.86221    0.45835    0.93632    1.000
    N5109    N        0.75776    0.42357    0.89046    1.000
    Si5110   Si       0.90653    0.46200    0.93535    1.000
    N5111    N        0.98132    0.47471    0.94886    1.000
    N5112    N        0.90911    0.43289    0.89882    1.000
    Si5113   Si       0.94752    0.43468    0.87762    1.000
    N5114    N        0.91869    0.42134    0.95973    1.000
    N5115    N        0.98114    0.46221    0.87861    1.000
    Si5116   Si       0.81726    0.51568    0.02990    1.000
    N5117    N        0.75961    0.52428    0.05650    1.000
    N5118    N        0.80833    0.49913    0.10805    1.000
    Si5119   Si       0.77391    0.48277    0.07606    1.000
    N5120    N        0.74332    0.50333    0.11478    1.000
    Si5121   Si       0.74833    0.53819    0.01612    1.000
    N5122    N        0.80920    0.47787    0.04866    1.000
    Si5123   Si       0.88767    0.49392    0.00785    1.000
    N5124    N        0.93489    0.48812    0.08244    1.000
    N5125    N        0.90369    0.53243    0.01940    1.000
    N5126    N        0.74198    0.50375    0.21599    1.000
    N5127    N        0.85970    0.50574    0.17065    1.000
    Si5128   Si       0.77877    0.52300    0.20580    1.000
    N5129    N        0.81387    0.50080    0.22101    1.000
    Si5130   Si       0.77816    0.49872    0.13999    1.000
    N5131    N        0.78174    0.53378    0.16409    1.000
    N5132    N        0.92249    0.50077    0.21396    1.000
    N5133    N        0.97756    0.49289    0.15429    1.000
    Si5134   Si       0.94887    0.50751    0.12128    1.000
    Si5135   Si       0.88253    0.54157    0.15984    1.000
    Si5136   Si       0.94623    0.53509    0.22634    1.000
    Si5137   Si       0.94407    0.48149    0.18131    1.000
    N5138    N        0.98546    0.53188    0.24500    1.000
    N5139    N        0.91451    0.51488    0.14601    1.000
    Si5140   Si       0.83241    0.50031    0.26124    1.000
    N5141    N        0.85507    0.48528    0.34541    1.000
    Si5142   Si       0.82358    0.50863    0.36683    1.000
    N5143    N        0.81858    0.54121    0.27990    1.000
    N5144    N        0.87569    0.49752    0.26329    1.000
    N5145    N        0.92541    0.49529    0.31487    1.000
    Si5146   Si       0.89999    0.52140    0.28857    1.000
    Si5147   Si       0.97031    0.49411    0.31892    1.000
    N5148    N        0.99058    0.53274    0.32530    1.000
    N5149    N        0.97248    0.48305    0.36104    1.000
    Si5150   Si       0.90002    0.47842    0.34643    1.000
    N5151    N        0.83423    0.51372    0.40791    1.000
    N5152    N        0.79642    0.51716    0.46901    1.000
    Si5153   Si       0.75385    0.51830    0.47514    1.000
    Si5154   Si       0.81415    0.48019    0.48814    1.000
    N5155    N        0.88976    0.52907    0.45005    1.000
    N5156    N        0.90969    0.50738    0.37967    1.000
    Si5157   Si       0.95255    0.50040    0.39507    1.000
    Si5158   Si       0.87800    0.51959    0.40923    1.000
    N5159    N        0.95783    0.48166    0.43274    1.000
    Si5160   Si       0.95588    0.50677    0.46828    1.000
    N5161    N        0.92600    0.48906    0.49370    1.000
    Si5162   Si       0.88877    0.49012    0.47047    1.000
    N5163    N        0.75948    0.49701    0.58497    1.000
    Si5164   Si       0.75703    0.48798    0.54225    1.000
    Si5165   Si       0.78228    0.48134    0.61774    1.000
    N5166    N        0.93041    0.48450    0.56884    1.000
    N5167    N        0.87595    0.52232    0.60831    1.000
    Si5168   Si       0.91322    0.49994    0.60646    1.000
    N5169    N        0.98506    0.52982    0.55128    1.000
    Si5170   Si       0.85460    0.48406    0.62412    1.000
    N5171    N        0.77574    0.51325    0.65042    1.000
    Si5172   Si       0.85035    0.52714    0.73332    1.000
    Si5173   Si       0.80379    0.50164    0.68158    1.000
    N5174    N        0.85439    0.48462    0.72822    1.000
    N5175    N        0.82479    0.53667    0.69882    1.000
    N5176    N        0.95194    0.52824    0.69885    1.000
    Si5177   Si       0.96767    0.51290    0.66285    1.000
    Si5178   Si       0.91633    0.50678    0.71705    1.000
    N5179    N        0.93636    0.52678    0.63468    1.000
    N5180    N        0.80613    0.51227    0.81909    1.000
    Si5181   Si       0.79820    0.49709    0.85839    1.000
    Si5182   Si       0.85000    0.51773    0.81030    1.000
    N5183    N        0.75652    0.49078    0.86458    1.000
    Si5184   Si       0.91891    0.50644    0.79134    1.000
    N5185    N        0.95706    0.50740    0.81152    1.000
    N5186    N        0.88007    0.48854    0.80046    1.000
    N5187    N        0.92940    0.48875    0.75424    1.000
    N5188    N        0.80812    0.49433    0.94287    1.000
    Si5189   Si       0.84054    0.48984    0.91205    1.000
    Si5190   Si       0.79422    0.53383    0.93247    1.000
    N5191    N        0.80724    0.52802    0.88886    1.000
    N5192    N        0.75145    0.53785    0.93565    1.000
    N5193    N        0.84674    0.50422    0.99865    1.000
    N5194    N        0.98582    0.53193    0.90428    1.000
    Si5195   Si       0.95591    0.48643    0.98151    1.000
    Si5196   Si       0.97032    0.49191    0.90864    1.000
    N5197    N        0.91218    0.48384    0.97367    1.000
    N5198    N        0.96577    0.52730    0.98653    1.000
    N5199    N        0.86738    0.52399    0.91046    1.000
    N5200    N        0.92717    0.49488    0.91052    1.000
    Si5201   Si       0.90955    0.53425    0.91290    1.000
    N5202    N        0.78654    0.56323    0.10797    1.000
    N5203    N        0.85817    0.58414    0.00949    1.000
    Si5204   Si       0.75041    0.54257    0.09371    1.000
    N5205    N        0.79267    0.54325    0.00645    1.000
    N5206    N        0.83939    0.53986    0.05948    1.000
    Si5207   Si       0.82348    0.53980    0.09939    1.000
    N5208    N        0.97725    0.53844    0.11092    1.000
    Si5209   Si       0.87458    0.55587    0.04053    1.000
    N5210    N        0.89379    0.58223    0.06974    1.000
    N5211    N        0.93858    0.58854    0.01384    1.000
    Si5212   Si       0.88502    0.58679    0.11237    1.000
    Si5213   Si       0.96642    0.58120    0.11847    1.000
    Si5214   Si       0.74176    0.58900    0.20744    1.000
    N5215    N        0.85724    0.55564    0.12552    1.000
    Si5216   Si       0.78528    0.57619    0.15104    1.000
    N5217    N        0.77710    0.56431    0.22271    1.000
    N5218    N        0.84013    0.59270    0.24261    1.000
    Si5219   Si       0.92709    0.59510    0.17611    1.000
    N5220    N        0.95460    0.56733    0.19668    1.000
    N5221    N        0.92594    0.58349    0.13355    1.000
    N5222    N        0.88666    0.57856    0.18373    1.000
    Si5223   Si       0.83802    0.55620    0.31538    1.000
    Si5224   Si       0.80265    0.57456    0.25535    1.000
    N5225    N        0.81737    0.54788    0.35214    1.000
    N5226    N        0.83360    0.59839    0.31004    1.000
    N5227    N        0.93731    0.57301    0.34614    1.000
    Si5228   Si       0.97664    0.55680    0.35685    1.000
    N5229    N        0.91994    0.54913    0.25993    1.000
    Si5230   Si       0.90383    0.54681    0.35509    1.000
    Si5231   Si       0.92273    0.59344    0.26403    1.000
    N5232    N        0.87960    0.54337    0.31802    1.000
    N5233    N        0.77192    0.58895    0.47279    1.000
    Si5234   Si       0.80222    0.57999    0.37795    1.000
    N5235    N        0.83731    0.57119    0.45568    1.000
    N5236    N        0.78263    0.56229    0.41240    1.000
    Si5237   Si       0.75056    0.57841    0.43567    1.000
    Si5238   Si       0.81209    0.54084    0.43726    1.000
    N5239    N        0.95321    0.55085    0.46979    1.000
    N5240    N        0.96859    0.54114    0.39728    1.000
    Si5241   Si       0.97912    0.56320    0.43365    1.000
    N5242    N        0.88046    0.55931    0.38825    1.000
    Si5243   Si       0.88075    0.56939    0.46206    1.000
    N5244    N        0.84990    0.57361    0.56676    1.000
    N5245    N        0.74914    0.56392    0.60920    1.000
    Si5246   Si       0.86734    0.56323    0.60484    1.000
    Si5247   Si       0.93676    0.58036    0.50172    1.000
    Si5248   Si       0.97832    0.56983    0.56377    1.000
    N5249    N        0.93976    0.58229    0.54533    1.000
    N5250    N        0.97601    0.57197    0.60625    1.000
    N5251    N        0.90570    0.58409    0.60581    1.000
    N5252    N        0.89056    0.58253    0.50127    1.000
    Si5253   Si       0.82407    0.57349    0.67536    1.000
    N5254    N        0.84774    0.58312    0.63864    1.000
    N5255    N        0.78199    0.58221    0.66761    1.000
    Si5256   Si       0.75485    0.55176    0.65016    1.000
    Si5257   Si       0.94014    0.57290    0.63106    1.000
    N5258    N        0.89098    0.53985    0.73115    1.000
    N5259    N        0.93935    0.58788    0.74325    1.000
    N5260    N        0.95206    0.59062    0.66996    1.000
    Si5261   Si       0.95923    0.57041    0.70713    1.000
    N5262    N        0.75306    0.57066    0.85771    1.000
    Si5263   Si       0.80000    0.54761    0.79394    1.000
    N5264    N        0.79720    0.58643    0.81337    1.000
    N5265    N        0.76552    0.54581    0.76756    1.000
    N5266    N        0.86262    0.53803    0.84626    1.000
    N5267    N        0.83775    0.53891    0.77364    1.000
    Si5268   Si       0.90032    0.55958    0.83954    1.000
    Si5269   Si       0.90319    0.57065    0.76038    1.000
    N5270    N        0.91038    0.54962    0.79801    1.000
    Si5271   Si       0.81796    0.57490    0.98977    1.000
    N5272    N        0.81571    0.56782    0.94655    1.000
    Si5273   Si       0.84442    0.54927    0.88421    1.000
    N5274    N        0.84884    0.59212    0.89266    1.000
    N5275    N        0.91607    0.55901    0.94882    1.000
    Si5276   Si       0.96638    0.56307    0.88116    1.000
    N5277    N        0.92491    0.55281    0.87506    1.000
    Si5278   Si       0.92794    0.55212    0.99071    1.000
    Si5279   Si       0.75433    0.61070    0.01226    1.000
    N5280    N        0.75720    0.61877    0.05346    1.000
    N5281    N        0.84381    0.65301    0.01079    1.000
    N5282    N        0.79256    0.61026    0.99322    1.000
    Si5283   Si       0.87500    0.62362    0.00560    1.000
    N5284    N        0.90533    0.64000    0.03677    1.000
    Si5285   Si       0.92749    0.60526    0.05372    1.000
    N5286    N        0.96495    0.59785    0.07630    1.000
    N5287    N        0.99985    0.62200    0.01555    1.000
    N5288    N        0.85395    0.64418    0.19654    1.000
    Si5289   Si       0.84500    0.63637    0.15345    1.000
    N5290    N        0.81416    0.60705    0.15807    1.000
    N5291    N        0.74770    0.59496    0.16459    1.000
    Si5292   Si       0.86659    0.60399    0.21069    1.000
    N5293    N        0.87569    0.62731    0.12172    1.000
    N5294    N        0.92967    0.63778    0.18250    1.000
    N5295    N        0.89977    0.61704    0.23640    1.000
    Si5296   Si       0.92188    0.65291    0.22329    1.000
    N5297    N        0.98897    0.60360    0.15014    1.000
    Si5298   Si       0.79406    0.61570    0.31539    1.000
    N5299    N        0.77589    0.60378    0.35412    1.000
    Si5300   Si       0.85970    0.61482    0.27747    1.000
    N5301    N        0.77508    0.59953    0.27871    1.000
    N5302    N        0.84993    0.65700    0.26942    1.000
    N5303    N        0.96585    0.60052    0.26711    1.000
    N5304    N        0.95143    0.64118    0.32222    1.000
    Si5305   Si       0.97211    0.64049    0.28254    1.000
    Si5306   Si       0.92191    0.61063    0.33501    1.000
    N5307    N        0.89897    0.60725    0.29702    1.000
    N5308    N        0.89596    0.62582    0.36621    1.000
    N5309    N        0.75043    0.65008    0.48234    1.000
    Si5310   Si       0.75214    0.63096    0.37903    1.000
    N5311    N        0.81342    0.64176    0.45376    1.000
    Si5312   Si       0.82237    0.64452    0.41166    1.000
    N5313    N        0.83359    0.60728    0.39206    1.000
    Si5314   Si       0.81521    0.60261    0.47363    1.000
    N5315    N        0.78215    0.65435    0.39954    1.000
    N5316    N        0.96659    0.60293    0.42468    1.000
    Si5317   Si       0.87608    0.60007    0.39647    1.000
    N5318    N        0.89689    0.60170    0.43656    1.000
    Si5319   Si       0.98441    0.64675    0.49363    1.000
    N5320    N        0.95264    0.61939    0.48818    1.000
    Si5321   Si       0.93374    0.62214    0.44663    1.000
    N5322    N        0.82747    0.61084    0.51391    1.000
    N5323    N        0.76605    0.61248    0.54494    1.000
    Si5324   Si       0.80189    0.63723    0.53972    1.000
    N5325    N        0.77566    0.62713    0.61549    1.000
    Si5326   Si       0.74838    0.60947    0.50404    1.000
    Si5327   Si       0.75130    0.60219    0.58852    1.000
    N5328    N        0.94746    0.63745    0.58470    1.000
    N5329    N        0.88441    0.62850    0.55479    1.000
    Si5330   Si       0.91824    0.60802    0.57203    1.000
    Si5331   Si       0.86347    0.59730    0.53426    1.000
    N5332    N        0.78503    0.65205    0.68538    1.000
    N5333    N        0.84339    0.60309    0.69841    1.000
    N5334    N        0.74533    0.60968    0.72554    1.000
    Si5335   Si       0.84876    0.62246    0.73650    1.000
    Si5336   Si       0.76908    0.62296    0.65741    1.000
    Si5337   Si       0.77584    0.64290    0.72850    1.000
    Si5338   Si       0.86227    0.61898    0.66137    1.000
    N5339    N        0.98804    0.64183    0.68815    1.000
    N5340    N        0.90101    0.63535    0.66733    1.000
    N5341    N        0.93809    0.65388    0.71816    1.000
    Si5342   Si       0.94466    0.63714    0.67516    1.000
    Si5343   Si       0.81421    0.62561    0.79712    1.000
    N5344    N        0.78006    0.64601    0.81531    1.000
    N5345    N        0.80841    0.62803    0.75432    1.000
    N5346    N        0.84870    0.65092    0.80549    1.000
    Si5347   Si       0.75907    0.60579    0.83146    1.000
    Si5348   Si       0.88573    0.62814    0.80257    1.000
    N5349    N        0.92416    0.64568    0.78777    1.000
    N5350    N        0.89168    0.60230    0.83792    1.000
    Si5351   Si       0.94603    0.62989    0.75382    1.000
    N5352    N        0.87454    0.60243    0.76720    1.000
    N5353    N        0.98693    0.64776    0.75944    1.000
    N5354    N        0.98938    0.63594    0.82833    1.000
    N5355    N        0.80200    0.64199    0.88456    1.000
    N5356    N        0.82525    0.63758    0.94304    1.000
    Si5357   Si       0.76119    0.63702    0.89407    1.000
    Si5358   Si       0.80971    0.64881    0.98361    1.000
    Si5359   Si       0.81291    0.60467    0.91760    1.000
    N5360    N        0.76967    0.59807    0.91327    1.000
    N5361    N        0.89616    0.62243    0.96859    1.000
    N5362    N        0.91849    0.61967    0.90223    1.000
    N5363    N        0.98600    0.60129    0.89169    1.000
    N5364    N        0.96105    0.61134    0.95462    1.000
    Si5365   Si       0.95930    0.62171    0.99525    1.000
    Si5366   Si       0.88155    0.61432    0.87768    1.000
    Si5367   Si       0.92189    0.60299    0.94140    1.000
    Si5368   Si       0.83438    0.68308    0.04244    1.000
    N5369    N        0.80051    0.67060    0.06816    1.000
    Si5370   Si       0.75281    0.69931    0.01774    1.000
    Si5371   Si       0.80264    0.69505    0.10646    1.000
    N5372    N        0.76106    0.68723    0.11475    1.000
    Si5373   Si       0.75652    0.65757    0.07851    1.000
    N5374    N        0.78131    0.67753    0.99599    1.000
    Si5375   Si       0.99733    0.66469    0.02328    1.000
    N5376    N        0.86904    0.68449    0.07031    1.000
    Si5377   Si       0.87348    0.66899    0.11085    1.000
    Si5378   Si       0.90575    0.68376    0.04452    1.000
    N5379    N        0.93897    0.69227    0.07110    1.000
    Si5380   Si       0.97581    0.68025    0.09452    1.000
    N5381    N        0.83285    0.67210    0.12885    1.000
    Si5382   Si       0.85479    0.67406    0.22804    1.000
    N5383    N        0.82831    0.70992    0.22862    1.000
    N5384    N        0.89742    0.68839    0.22838    1.000
    Si5385   Si       0.97876    0.68943    0.22155    1.000
    N5386    N        0.89796    0.69032    0.14207    1.000
    Si5387   Si       0.93340    0.67498    0.16086    1.000
    N5388    N        0.96552    0.66532    0.13386    1.000
    N5389    N        0.94677    0.70181    0.19349    1.000
    Si5390   Si       0.82978    0.67511    0.30215    1.000
    Si5391   Si       0.75688    0.68703    0.29936    1.000
    N5392    N        0.84869    0.67401    0.34157    1.000
    N5393    N        0.77380    0.70787    0.26500    1.000
    N5394    N        0.78965    0.65994    0.30903    1.000
    N5395    N        0.83195    0.71722    0.30095    1.000
    N5396    N        0.98483    0.70214    0.33254    1.000
    Si5397   Si       0.95738    0.67195    0.35100    1.000
    N5398    N        0.91969    0.69015    0.36309    1.000
    N5399    N        0.95845    0.66333    0.24825    1.000
    Si5400   Si       0.78836    0.66929    0.47504    1.000
    Si5401   Si       0.77470    0.69766    0.40838    1.000
    N5402    N        0.77785    0.70509    0.45200    1.000
    N5403    N        0.86340    0.66427    0.40865    1.000
    N5404    N        0.80076    0.71647    0.38013    1.000
    Si5405   Si       0.89233    0.68589    0.43585    1.000
    Si5406   Si       0.88073    0.66608    0.36883    1.000
    N5407    N        0.97803    0.65691    0.38661    1.000
    N5408    N        0.92826    0.66268    0.43707    1.000
    N5409    N        0.87330    0.68903    0.47343    1.000
    Si5410   Si       0.96571    0.67863    0.42271    1.000
    N5411    N        0.80274    0.67501    0.51505    1.000
    Si5412   Si       0.78499    0.66570    0.59777    1.000
    N5413    N        0.75144    0.67499    0.56970    1.000
    Si5414   Si       0.82213    0.70949    0.53493    1.000
    N5415    N        0.86366    0.69578    0.54535    1.000
    N5416    N        0.82076    0.65565    0.57526    1.000
    Si5417   Si       0.86345    0.66340    0.57480    1.000
    N5418    N        0.95063    0.70659    0.58578    1.000
    N5419    N        0.89214    0.67537    0.60729    1.000
    Si5420   Si       0.93624    0.67271    0.60676    1.000
    Si5421   Si       0.95993    0.70140    0.54311    1.000
    N5422    N        0.97924    0.66400    0.53364    1.000
    N5423    N        0.84423    0.65939    0.65071    1.000
    N5424    N        0.78403    0.69475    0.63109    1.000
    Si5425   Si       0.80999    0.68229    0.66425    1.000
    N5426    N        0.76762    0.68272    0.74255    1.000
    Si5427   Si       0.96607    0.71286    0.66627    1.000
    N5428    N        0.94705    0.67449    0.64789    1.000
    N5429    N        0.97453    0.71067    0.70783    1.000
    Si5430   Si       0.88643    0.67561    0.65195    1.000
    N5431    N        0.86663    0.66167    0.73212    1.000
    N5432    N        0.89161    0.70262    0.68634    1.000
    Si5433   Si       0.90440    0.68031    0.72223    1.000
    Si5434   Si       0.98528    0.66980    0.72151    1.000
    Si5435   Si       0.85215    0.69609    0.80829    1.000
    Si5436   Si       0.75645    0.67683    0.83131    1.000
    N5437    N        0.76895    0.69930    0.86638    1.000
    N5438    N        0.77239    0.71509    0.80412    1.000
    N5439    N        0.83430    0.71797    0.84235    1.000
    Si5440   Si       0.92785    0.68835    0.79349    1.000
    Si5441   Si       0.97453    0.67387    0.84434    1.000
    N5442    N        0.96688    0.70140    0.81097    1.000
    N5443    N        0.89449    0.70005    0.81825    1.000
    N5444    N        0.91950    0.70596    0.75472    1.000
    N5445    N        0.93699    0.67976    0.86590    1.000
    N5446    N        0.75267    0.66790    0.92563    1.000
    N5447    N        0.81678    0.70069    0.91611    1.000
    Si5448   Si       0.77457    0.70177    0.90717    1.000
    Si5449   Si       0.83191    0.66263    0.90647    1.000
    N5450    N        0.86916    0.65564    0.88716    1.000
    N5451    N        0.91794    0.68861    0.93328    1.000
    Si5452   Si       0.95411    0.68301    0.95694    1.000
    Si5453   Si       0.91209    0.66365    0.89844    1.000
    N5454    N        0.96079    0.66620    0.99709    1.000
    N5455    N        0.98255    0.66883    0.92728    1.000
    N5456    N        0.77183    0.73639    0.03230    1.000
    N5457    N        0.80545    0.73780    0.09457    1.000
    Si5458   Si       0.80568    0.75027    0.01132    1.000
    Si5459   Si       0.77421    0.75712    0.07053    1.000
    N5460    N        0.83715    0.72228    0.01972    1.000
    Si5461   Si       0.95547    0.73158    0.06490    1.000
    N5462    N        0.92848    0.76634    0.06825    1.000
    N5463    N        0.98432    0.72367    0.09680    1.000
    Si5464   Si       0.87466    0.73806    0.00199    1.000
    N5465    N        0.97858    0.72812    0.02829    1.000
    Si5466   Si       0.94572    0.73529    0.99933    1.000
    N5467    N        0.87750    0.75234    0.11814    1.000
    N5468    N        0.91025    0.71529    0.01551    1.000
    Si5469   Si       0.83325    0.75631    0.12144    1.000
    N5470    N        0.83247    0.73279    0.15862    1.000
    Si5471   Si       0.81283    0.73624    0.19739    1.000
    N5472    N        0.77117    0.73671    0.20287    1.000
    Si5473   Si       0.74693    0.72412    0.23771    1.000
    Si5474   Si       0.74373    0.76803    0.18192    1.000
    N5475    N        0.89149    0.74659    0.18775    1.000
    Si5476   Si       0.91694    0.72487    0.21589    1.000
    Si5477   Si       0.87661    0.72584    0.15238    1.000
    N5478    N        0.93580    0.75702    0.23523    1.000
    Si5479   Si       0.81082    0.73053    0.26661    1.000
    N5480    N        0.80880    0.76462    0.34117    1.000
    Si5481   Si       0.83139    0.72130    0.34684    1.000
    N5482    N        0.93702    0.75613    0.35261    1.000
    Si5483   Si       0.97464    0.74676    0.33121    1.000
    N5484    N        0.97930    0.76861    0.29344    1.000
    N5485    N        0.86850    0.73518    0.36865    1.000
    Si5486   Si       0.97639    0.75783    0.25085    1.000
    Si5487   Si       0.79251    0.75996    0.38213    1.000
    Si5488   Si       0.75350    0.73417    0.47674    1.000
    N5489    N        0.76025    0.77130    0.40728    1.000
    Si5490   Si       0.98707    0.74892    0.44084    1.000
    N5491    N        0.90840    0.72520    0.42369    1.000
    N5492    N        0.95274    0.76401    0.46215    1.000
    N5493    N        0.89646    0.75363    0.48735    1.000
    Si5494   Si       0.91052    0.72946    0.37877    1.000
    N5495    N        0.98322    0.71627    0.41274    1.000
    Si5496   Si       0.91032    0.76550    0.44652    1.000
    N5497    N        0.84189    0.74122    0.51285    1.000
    N5498    N        0.79133    0.73410    0.55335    1.000
    Si5499   Si       0.75047    0.71585    0.55245    1.000
    N5500    N        0.76820    0.76871    0.49659    1.000
    Si5501   Si       0.94045    0.75088    0.50441    1.000
    N5502    N        0.97722    0.73875    0.52737    1.000
    Si5503   Si       0.95374    0.74689    0.60512    1.000
    Si5504   Si       0.88135    0.71464    0.50825    1.000
    N5505    N        0.92428    0.71198    0.51998    1.000
    N5506    N        0.82509    0.71616    0.68627    1.000
    N5507    N        0.75674    0.72321    0.68766    1.000
    N5508    N        0.85178    0.76286    0.72325    1.000
    N5509    N        0.75220    0.76395    0.63010    1.000
    Si5510   Si       0.75150    0.72217    0.64332    1.000
    Si5511   Si       0.79219    0.74451    0.69759    1.000
    N5512    N        0.78742    0.75202    0.73966    1.000
    Si5513   Si       0.86467    0.73558    0.69173    1.000
    Si5514   Si       0.92010    0.77452    0.67141    1.000
    N5515    N        0.94463    0.74618    0.64753    1.000
    N5516    N        0.92542    0.76671    0.71575    1.000
    N5517    N        0.88007    0.76222    0.65931    1.000
    Si5518   Si       0.84792    0.75640    0.76733    1.000
    Si5519   Si       0.79271    0.72644    0.84135    1.000
    N5520    N        0.78096    0.76459    0.85707    1.000
    Si5521   Si       0.85767    0.74416    0.86817    1.000
    N5522    N        0.83354    0.71552    0.77380    1.000
    Si5523   Si       0.79076    0.71522    0.76278    1.000
    N5524    N        0.93225    0.75557    0.84105    1.000
    Si5525   Si       0.92303    0.75012    0.75433    1.000
    N5526    N        0.88951    0.76404    0.77883    1.000
    N5527    N        0.95878    0.76587    0.77745    1.000
    Si5528   Si       0.91889    0.71573    0.85127    1.000
    Si5529   Si       0.83154    0.73684    0.93707    1.000
    N5530    N        0.80309    0.75080    0.96757    1.000
    N5531    N        0.83614    0.76182    0.90090    1.000
    N5532    N        0.75813    0.74158    0.91996    1.000
    Si5533   Si       0.77153    0.77171    0.94779    1.000
    N5534    N        0.92508    0.76761    0.92625    1.000
    N5535    N        0.89106    0.72503    0.88461    1.000
    Si5536   Si       0.90030    0.72996    0.92708    1.000
    N5537    N        0.86946    0.73406    0.95808    1.000
    Si5538   Si       0.96872    0.75517    0.93149    1.000
    N5539    N        0.96490    0.72421    0.96238    1.000
    Si5540   Si       0.77588    0.82190    0.03897    1.000
    N5541    N        0.77401    0.80237    0.07796    1.000
    Si5542   Si       0.84523    0.81104    0.01280    1.000
    N5543    N        0.80613    0.79247    0.02337    1.000
    Si5544   Si       0.78631    0.81157    0.11766    1.000
    Si5545   Si       0.91577    0.79029    0.03222    1.000
    N5546    N        0.88451    0.81811    0.09555    1.000
    Si5547   Si       0.90608    0.78023    0.10380    1.000
    N5548    N        0.87541    0.77919    0.01949    1.000
    N5549    N        0.94210    0.77851    0.00184    1.000
    N5550    N        0.82708    0.79863    0.12254    1.000
    N5551    N        0.75156    0.79694    0.14197    1.000
    Si5552   Si       0.80112    0.79827    0.23090    1.000
    N5553    N        0.76104    0.79947    0.21309    1.000
    Si5554   Si       0.85845    0.82772    0.12952    1.000
    N5555    N        0.82927    0.77556    0.20707    1.000
    N5556    N        0.87733    0.80865    0.16232    1.000
    N5557    N        0.93677    0.79266    0.13393    1.000
    N5558    N        0.88683    0.80473    0.22991    1.000
    Si5559   Si       0.97653    0.80488    0.12244    1.000
    Si5560   Si       0.86958    0.78357    0.19702    1.000
    N5561    N        0.94263    0.82220    0.19679    1.000
    Si5562   Si       0.93035    0.80156    0.23152    1.000
    Si5563   Si       0.91911    0.82260    0.16155    1.000
    N5564    N        0.98747    0.79801    0.23574    1.000
    Si5565   Si       0.98678    0.82513    0.19743    1.000
    Si5566   Si       0.78916    0.78791    0.30944    1.000
    N5567    N        0.80622    0.82807    0.31142    1.000
    Si5568   Si       0.84854    0.82449    0.32475    1.000
    N5569    N        0.74695    0.78626    0.32181    1.000
    N5570    N        0.80129    0.77267    0.26900    1.000
    N5571    N        0.87301    0.79814    0.34783    1.000
    N5572    N        0.93956    0.81722    0.27204    1.000
    Si5573   Si       0.91518    0.79145    0.35945    1.000
    N5574    N        0.92905    0.82959    0.34456    1.000
    Si5575   Si       0.98479    0.81126    0.28074    1.000
    Si5576   Si       0.75287    0.81290    0.41759    1.000
    N5577    N        0.84436    0.79632    0.47126    1.000
    Si5578   Si       0.82604    0.80839    0.43417    1.000
    N5579    N        0.78758    0.82724    0.43773    1.000
    Si5580   Si       0.86139    0.77536    0.38198    1.000
    N5581    N        0.82621    0.77807    0.40516    1.000
    N5582    N        0.90015    0.78487    0.40288    1.000
    N5583    N        0.91363    0.81273    0.45677    1.000
    Si5584   Si       0.95123    0.80576    0.47672    1.000
    Si5585   Si       0.89564    0.82700    0.42132    1.000
    N5586    N        0.81569    0.81078    0.53405    1.000
    N5587    N        0.75580    0.79590    0.56145    1.000
    Si5588   Si       0.84915    0.82122    0.56076    1.000
    N5589    N        0.83853    0.81153    0.60129    1.000
    Si5590   Si       0.78742    0.77633    0.53606    1.000
    Si5591   Si       0.86503    0.77678    0.50403    1.000
    N5592    N        0.87935    0.79567    0.53889    1.000
    Si5593   Si       0.91890    0.80457    0.55310    1.000
    N5594    N        0.94580    0.79545    0.51887    1.000
    Si5595   Si       0.98039    0.78346    0.56081    1.000
    N5596    N        0.98555    0.82560    0.57952    1.000
    N5597    N        0.93529    0.77513    0.57779    1.000
    Si5598   Si       0.83521    0.79732    0.70251    1.000
    N5599    N        0.80966    0.81926    0.72851    1.000
    Si5600   Si       0.82593    0.80818    0.64212    1.000
    N5601    N        0.80518    0.77947    0.67322    1.000
    Si5602   Si       0.76311    0.79731    0.65832    1.000
    N5603    N        0.85424    0.82469    0.67273    1.000
    N5604    N        0.74588    0.78793    0.70068    1.000
    N5605    N        0.78819    0.83272    0.64856    1.000
    Si5606   Si       0.96109    0.79207    0.71755    1.000
    N5607    N        0.94990    0.80801    0.67829    1.000
    Si5608   Si       0.83892    0.80462    0.82465    1.000
    N5609    N        0.81434    0.82048    0.85871    1.000
    Si5610   Si       0.79161    0.79359    0.75843    1.000
    N5611    N        0.75069    0.80115    0.76843    1.000
    N5612    N        0.82304    0.78686    0.78824    1.000
    N5613    N        0.74449    0.81900    0.83966    1.000
    N5614    N        0.86907    0.77827    0.84073    1.000
    Si5615   Si       0.95642    0.80867    0.78589    1.000
    N5616    N        0.91998    0.82132    0.80686    1.000
    Si5617   Si       0.90516    0.78112    0.81608    1.000
    N5618    N        0.97903    0.82635    0.81746    1.000
    N5619    N        0.96228    0.82474    0.74792    1.000
    N5620    N        0.84473    0.81521    0.97170    1.000
    Si5621   Si       0.80400    0.78607    0.88558    1.000
    N5622    N        0.78503    0.80319    0.92027    1.000
    N5623    N        0.87989    0.82823    0.91387    1.000
    N5624    N        0.98710    0.78874    0.95134    1.000
    N5625    N        0.93266    0.83130    0.95247    1.000
    Si5626   Si       0.91976    0.80859    0.91686    1.000
    N5627    N        0.92875    0.82353    0.87678    1.000
    Si5628   Si       0.95973    0.80835    0.97891    1.000
    N5629    N        0.78408    0.86254    0.02893    1.000
    N5630    N        0.85123    0.84551    0.03586    1.000
    Si5631   Si       0.82435    0.88059    0.03437    1.000
    Si5632   Si       0.75255    0.87571    0.00219    1.000
    Si5633   Si       0.94951    0.86303    0.02563    1.000
    Si5634   Si       0.93734    0.87125    0.10658    1.000
    N5635    N        0.90469    0.88275    0.07696    1.000
    Si5636   Si       0.88446    0.84555    0.06227    1.000
    N5637    N        0.97604    0.88642    0.05207    1.000
    N5638    N        0.97137    0.84205    0.10152    1.000
    N5639    N        0.97861    0.83936    0.00257    1.000
    N5640    N        0.91929    0.83248    0.03704    1.000
    N5641    N        0.78384    0.84862    0.14194    1.000
    Si5642   Si       0.80974    0.88245    0.15196    1.000
    N5643    N        0.84942    0.86854    0.14105    1.000
    Si5644   Si       0.80353    0.87398    0.23741    1.000
    N5645    N        0.76142    0.86439    0.23949    1.000
    N5646    N        0.81224    0.89084    0.19648    1.000
    N5647    N        0.82460    0.83509    0.23766    1.000
    N5648    N        0.91367    0.86107    0.14441    1.000
    N5649    N        0.88838    0.87560    0.24120    1.000
    Si5650   Si       0.80913    0.87073    0.31650    1.000
    N5651    N        0.84412    0.86248    0.34436    1.000
    N5652    N        0.81485    0.89073    0.27639    1.000
    N5653    N        0.92007    0.88378    0.30228    1.000
    Si5654   Si       0.91779    0.83933    0.30321    1.000
    N5655    N        0.98519    0.84809    0.30724    1.000
    Si5656   Si       0.96468    0.88793    0.31289    1.000
    N5657    N        0.87620    0.83296    0.29191    1.000
    Si5658   Si       0.94653    0.85684    0.37342    1.000
    Si5659   Si       0.86645    0.83823    0.24841    1.000
    Si5660   Si       0.78750    0.87018    0.44247    1.000
    Si5661   Si       0.84178    0.86604    0.38734    1.000
    N5662    N        0.80149    0.87981    0.40228    1.000
    N5663    N        0.81743    0.87267    0.47678    1.000
    N5664    N        0.74443    0.87981    0.43767    1.000
    N5665    N        0.85376    0.83537    0.41456    1.000
    N5666    N        0.98044    0.83268    0.46187    1.000
    N5667    N        0.98229    0.84323    0.39168    1.000
    N5668    N        0.91410    0.86159    0.40240    1.000
    N5669    N        0.79610    0.87975    0.53904    1.000
    N5670    N        0.85933    0.86416    0.55117    1.000
    Si5671   Si       0.80011    0.84658    0.51120    1.000
    N5672    N        0.76062    0.83262    0.50349    1.000
    Si5673   Si       0.75633    0.89526    0.54562    1.000
    Si5674   Si       0.90018    0.87537    0.55727    1.000
    Si5675   Si       0.95698    0.85453    0.59540    1.000
    N5676    N        0.92138    0.84259    0.57272    1.000
    N5677    N        0.92215    0.88345    0.52163    1.000
    Si5678   Si       0.81226    0.86266    0.72997    1.000
    Si5679   Si       0.78326    0.87257    0.66208    1.000
    N5680    N        0.84900    0.87997    0.71259    1.000
    N5681    N        0.78296    0.88344    0.70423    1.000
    N5682    N        0.94413    0.86328    0.63534    1.000
    Si5683   Si       0.97967    0.86206    0.73980    1.000
    Si5684   Si       0.94919    0.85166    0.67642    1.000
    Si5685   Si       0.91018    0.88917    0.73873    1.000
    Si5686   Si       0.87634    0.86047    0.68396    1.000
    N5687    N        0.91603    0.86175    0.70317    1.000
    N5688    N        0.78839    0.87758    0.83812    1.000
    N5689    N        0.81056    0.87487    0.77106    1.000
    N5690    N        0.85650    0.84562    0.81900    1.000
    Si5691   Si       0.83277    0.87289    0.84415    1.000
    Si5692   Si       0.77570    0.83966    0.85819    1.000
    Si5693   Si       0.77703    0.88576    0.79610    1.000
    Si5694   Si       0.89526    0.85818    0.80909    1.000
    N5695    N        0.91606    0.87797    0.84494    1.000
    N5696    N        0.88764    0.87956    0.77221    1.000
    Si5697   Si       0.94998    0.84464    0.84462    1.000
    N5698    N        0.85846    0.87907    0.87965    1.000
    Si5699   Si       0.85481    0.84541    0.94448    1.000
    Si5700   Si       0.78000    0.84531    0.93140    1.000
    N5701    N        0.81789    0.86551    0.93313    1.000
    N5702    N        0.76217    0.86094    0.89317    1.000
    N5703    N        0.74609    0.85579    0.95882    1.000
    N5704    N        0.98115    0.86672    0.87052    1.000
    N5705    N        0.87852    0.87597    0.96578    1.000
    N5706    N        0.93733    0.88963    0.99159    1.000
    N5707    N        0.92413    0.88304    0.91309    1.000
    Si5708   Si       0.89985    0.85852    0.88495    1.000
    Si5709   Si       0.91958    0.87175    0.95681    1.000
    Si5710   Si       0.80925    0.92837    0.08984    1.000
    N5711    N        0.78337    0.93862    0.05376    1.000
    N5712    N        0.83686    0.90258    0.07054    1.000
    N5713    N        0.82779    0.91143    0.00263    1.000
    Si5714   Si       0.79267    0.93989    0.00854    1.000
    Si5715   Si       0.87732    0.91786    0.07737    1.000
    Si5716   Si       0.98065    0.93131    0.05108    1.000
    N5717    N        0.94420    0.94712    0.03424    1.000
    N5718    N        0.95849    0.90311    0.12501    1.000
    N5719    N        0.79310    0.91543    0.12749    1.000
    Si5720   Si       0.76070    0.93966    0.14414    1.000
    Si5721   Si       0.80176    0.93357    0.19973    1.000
    N5722    N        0.75977    0.93475    0.18902    1.000
    N5723    N        0.80808    0.95052    0.23937    1.000
    N5724    N        0.88477    0.92603    0.11954    1.000
    Si5725   Si       0.97792    0.94065    0.12682    1.000
    Si5726   Si       0.95481    0.93912    0.24708    1.000
    Si5727   Si       0.91356    0.90485    0.21553    1.000
    N5728    N        0.95474    0.91667    0.20675    1.000
    N5729    N        0.88792    0.91805    0.18492    1.000
    Si5730   Si       0.88398    0.89444    0.14899    1.000
    Si5731   Si       0.82375    0.93312    0.27567    1.000
    Si5732   Si       0.76165    0.93205    0.31991    1.000
    N5733    N        0.78199    0.89759    0.33752    1.000
    N5734    N        0.86581    0.93571    0.28546    1.000
    N5735    N        0.97192    0.91037    0.27489    1.000
    Si5736   Si       0.89301    0.90379    0.27612    1.000
    N5737    N        0.91169    0.93604    0.24702    1.000
    N5738    N        0.95305    0.89430    0.35436    1.000
    Si5739   Si       0.77192    0.90326    0.37870    1.000
    Si5740   Si       0.82933    0.93190    0.40688    1.000
    N5741    N        0.83424    0.93550    0.44915    1.000
    Si5742   Si       0.85078    0.90445    0.47370    1.000
    N5743    N        0.78987    0.94230    0.39567    1.000
    N5744    N        0.86197    0.90238    0.39688    1.000
    N5745    N        0.92020    0.94859    0.49544    1.000
    N5746    N        0.92221    0.93332    0.40341    1.000
    N5747    N        0.96470    0.89992    0.46755    1.000
    Si5748   Si       0.90017    0.90000    0.41830    1.000
    Si5749   Si       0.92590    0.90687    0.48757    1.000
    N5750    N        0.89267    0.89808    0.46098    1.000
    Si5751   Si       0.95813    0.92989    0.37901    1.000
    Si5752   Si       0.98008    0.93564    0.44766    1.000
    N5753    N        0.82890    0.92561    0.57955    1.000
    Si5754   Si       0.79555    0.92433    0.60730    1.000
    N5755    N        0.75978    0.92078    0.58035    1.000
    N5756    N        0.85758    0.91781    0.51414    1.000
    Si5757   Si       0.83360    0.89958    0.54493    1.000
    N5758    N        0.74488    0.91217    0.50824    1.000
    Si5759   Si       0.86769    0.93957    0.59050    1.000
    N5760    N        0.89619    0.90515    0.58948    1.000
    Si5761   Si       0.97377    0.92884    0.61442    1.000
    N5762    N        0.96994    0.89457    0.58705    1.000
    Si5763   Si       0.74909    0.91343    0.69707    1.000
    Si5764   Si       0.84719    0.91875    0.65353    1.000
    Si5765   Si       0.85025    0.92340    0.71859    1.000
    N5766    N        0.81039    0.89818    0.64100    1.000
    N5767    N        0.83031    0.94196    0.68569    1.000
    N5768    N        0.74339    0.89126    0.65857    1.000
    N5769    N        0.93793    0.93202    0.63813    1.000
    N5770    N        0.89395    0.92637    0.72120    1.000
    Si5771   Si       0.91534    0.89664    0.62730    1.000
    N5772    N        0.88110    0.89196    0.65412    1.000
    N5773    N        0.75704    0.92380    0.79222    1.000
    N5774    N        0.84535    0.91055    0.82148    1.000
    N5775    N        0.83479    0.93554    0.75762    1.000
    Si5776   Si       0.86199    0.94712    0.83426    1.000
    Si5777   Si       0.84720    0.89859    0.78023    1.000
    Si5778   Si       0.91350    0.92278    0.85251    1.000
    N5779    N        0.90394    0.94631    0.81806    1.000
    N5780    N        0.95222    0.89451    0.75210    1.000
    Si5781   Si       0.97256    0.93559    0.75085    1.000
    N5782    N        0.95219    0.93047    0.87017    1.000
    Si5783   Si       0.76442    0.90036    0.87336    1.000
    Si5784   Si       0.74447    0.93667    0.95302    1.000
    N5785    N        0.76150    0.91600    0.98889    1.000
    N5786    N        0.84858    0.92939    0.93516    1.000
    Si5787   Si       0.83311    0.89964    0.90845    1.000
    Si5788   Si       0.86232    0.91534    0.97600    1.000
    N5789    N        0.80197    0.91844    0.88541    1.000
    Si5790   Si       0.93408    0.93299    0.99309    1.000
    Si5791   Si       0.96091    0.89823    0.89588    1.000
    N5792    N        0.89272    0.94429    0.98670    1.000
    N5793    N        0.87929    0.94794    0.87433    1.000
    N5794    N        0.82875    0.96601    0.09999    1.000
    Si5795   Si       0.75633    0.97311    0.04804    1.000
    N5796    N        0.77695    0.98358    0.00790    1.000
    Si5797   Si       0.85690    0.98853    0.07542    1.000
    N5798    N        0.75334    0.00587    0.07774    1.000
    Si5799   Si       0.91804    0.98035    0.04194    1.000
    N5800    N        0.90121    0.00419    0.00953    1.000
    N5801    N        0.89112    0.00437    0.10248    1.000
    N5802    N        0.88390    0.95835    0.05797    1.000
    N5803    N        0.94629    0.00725    0.06188    1.000
    N5804    N        0.94534    0.96933    0.12214    1.000
    Si5805   Si       0.90171    0.96472    0.12618    1.000
    Si5806   Si       0.93819    0.00783    0.10334    1.000
    N5807    N        0.77508    0.98126    0.13773    1.000
    Si5808   Si       0.81860    0.97933    0.14000    1.000
    Si5809   Si       0.82471    0.99230    0.23777    1.000
    N5810    N        0.82989    0.95527    0.17279    1.000
    N5811    N        0.88993    0.98680    0.16240    1.000
    Si5812   Si       0.87058    0.95671    0.18785    1.000
    N5813    N        0.86422    0.98085    0.22481    1.000
    Si5814   Si       0.80342    0.99361    0.30776    1.000
    N5815    N        0.74954    0.96630    0.34411    1.000
    N5816    N        0.83672    0.00385    0.28030    1.000
    N5817    N        0.82353    0.00356    0.34671    1.000
    N5818    N        0.79721    0.95049    0.30309    1.000
    N5819    N        0.97073    0.96103    0.35036    1.000
    Si5820   Si       0.95424    0.00095    0.35868    1.000
    Si5821   Si       0.88726    0.97111    0.26175    1.000
    N5822    N        0.90298    0.00983    0.27157    1.000
    N5823    N        0.96307    0.97876    0.25995    1.000
    N5824    N        0.85033    0.96742    0.39275    1.000
    Si5825   Si       0.85194    0.97638    0.45201    1.000
    Si5826   Si       0.76079    0.97395    0.38671    1.000
    Si5827   Si       0.82634    0.00386    0.39239    1.000
    N5828    N        0.82184    0.00520    0.43821    1.000
    Si5829   Si       0.98762    0.00766    0.42994    1.000
    N5830    N        0.91380    0.00074    0.37508    1.000
    N5831    N        0.96184    0.97635    0.44625    1.000
    Si5832   Si       0.92287    0.98003    0.46577    1.000
    Si5833   Si       0.89339    0.96724    0.39488    1.000
    N5834    N        0.89160    0.98260    0.43673    1.000
    N5835    N        0.75019    0.99389    0.58832    1.000
    N5836    N        0.77489    0.97516    0.50177    1.000
    Si5837   Si       0.74056    0.95281    0.60252    1.000
    N5838    N        0.86044    0.98235    0.49640    1.000
    Si5839   Si       0.88207    0.95261    0.51964    1.000
    Si5840   Si       0.97624    0.97543    0.55386    1.000
    N5841    N        0.88404    0.96506    0.56047    1.000
    N5842    N        0.94014    0.99904    0.55934    1.000
    Si5843   Si       0.89979    0.00145    0.58165    1.000
    N5844    N        0.98614    0.96717    0.59679    1.000
    N5845    N        0.91930    0.00095    0.62315    1.000
    Si5846   Si       0.77862    0.00739    0.62154    1.000
    N5847    N        0.77846    0.95771    0.62950    1.000
    Si5848   Si       0.79519    0.96209    0.66997    1.000
    N5849    N        0.81342    0.00065    0.65679    1.000
    N5850    N        0.76507    0.95410    0.69874    1.000
    Si5851   Si       0.85482    0.99757    0.63921    1.000
    N5852    N        0.86086    0.95461    0.63095    1.000
    Si5853   Si       0.74199    0.98693    0.71732    1.000
    N5854    N        0.91579    0.98378    0.68978    1.000
    N5855    N        0.98016    0.98613    0.66042    1.000
    Si5856   Si       0.90845    0.96631    0.72777    1.000
    Si5857   Si       0.93874    0.97379    0.65373    1.000
    N5858    N        0.75962    0.98493    0.82561    1.000
    Si5859   Si       0.76255    0.96631    0.78487    1.000
    N5860    N        0.79804    0.99140    0.77511    1.000
    N5861    N        0.84013    0.97951    0.81720    1.000
    Si5862   Si       0.84057    0.97693    0.77316    1.000
    Si5863   Si       0.80043    0.99694    0.82017    1.000
    Si5864   Si       0.91550    0.97709    0.78950    1.000
    N5865    N        0.97201    0.98260    0.82357    1.000
    Si5866   Si       0.97794    0.96483    0.86280    1.000
    N5867    N        0.94093    0.96594    0.75616    1.000
    N5868    N        0.88178    0.98288    0.76043    1.000
    N5869    N        0.82662    0.99232    0.90788    1.000
    N5870    N        0.83542    0.99248    0.98105    1.000
    Si5871   Si       0.80792    0.99407    0.94650    1.000
    Si5872   Si       0.74943    0.99599    0.97384    1.000
    N5873    N        0.77278    0.96890    0.94346    1.000
    Si5874   Si       0.86111    0.96415    0.91046    1.000
    N5875    N        0.95846    0.95567    0.96804    1.000
    Si5876   Si       0.87984    0.98486    0.97993    1.000
    N5877    N        0.97694    0.98806    0.89964    1.000
    N5878    N        0.88590    0.98939    0.93611    1.000
    Si5879   Si       0.98384    0.95688    0.93141    1.000
