# CIF file generated by openbabel 3.1.1, see https://openbabel.org
data_I
_chemical_name_common '3.01-46.aims'
_cell_length_a 39.8652
_cell_length_b 39.8652
_cell_length_c 39.8652
_cell_angle_alpha 90
_cell_angle_beta 90
_cell_angle_gamma 90
loop_
    _atom_site_label
    _atom_site_type_symbol
    _atom_site_fract_x
    _atom_site_fract_y
    _atom_site_fract_z
    _atom_site_occupancy
    N0       N        0.02443    0.10699    0.05276    1.000
    N1       N        0.02130    0.04214    0.08543    1.000
    Si2      Si       0.01148    0.06582    0.05119    1.000
    N3       N        0.01647    0.05087    0.00784    1.000
    Si4      Si       0.99724    0.02289    0.11885    1.000
    Si5      Si       0.00559    0.13690    0.02310    1.000
    N6       N        0.01298    0.18105    0.03147    1.000
    N7       N        0.02061    0.19480    0.10553    1.000
    Si8      Si       0.03380    0.23697    0.10145    1.000
    N9       N        0.99843    0.25141    0.00438    1.000
    Si10     Si       0.99481    0.20894    0.00153    1.000
    Si11     Si       0.99466    0.18711    0.07111    1.000
    N12      N        0.02807    0.08172    0.17926    1.000
    Si13     Si       0.02470    0.03812    0.18500    1.000
    Si14     Si       0.00036    0.11394    0.17177    1.000
    N15      N        0.02783    0.01137    0.15026    1.000
    N16      N        0.99152    0.02222    0.20694    1.000
    N17      N        0.00250    0.13029    0.13258    1.000
    Si18     Si       0.03705    0.15687    0.12291    1.000
    Si19     Si       0.99164    0.14316    0.24335    1.000
    N20      N        0.99752    0.21684    0.19669    1.000
    Si21     Si       0.01888    0.24608    0.17212    1.000
    N22      N        0.00639    0.14679    0.20284    1.000
    Si23     Si       0.03013    0.18441    0.19444    1.000
    N24      N        0.00337    0.09607    0.32351    1.000
    Si25     Si       0.03700    0.09866    0.29343    1.000
    Si26     Si       0.01224    0.11382    0.36251    1.000
    Si27     Si       0.01961    0.01058    0.35357    1.000
    N28      N        0.04265    0.05639    0.27830    1.000
    N29      N        0.02622    0.13026    0.26503    1.000
    N30      N        0.00362    0.20560    0.35266    1.000
    N31      N        0.99982    0.24415    0.29803    1.000
    N32      N        0.04263    0.14382    0.35723    1.000
    Si33     Si       0.04222    0.18752    0.34444    1.000
    Si34     Si       0.04158    0.23302    0.29078    1.000
    N35      N        0.02001    0.08150    0.39045    1.000
    N36      N        0.00718    0.04768    0.45129    1.000
    N37      N        0.99919    0.01513    0.39138    1.000
    Si38     Si       0.04142    0.02118    0.44549    1.000
    Si39     Si       0.99048    0.05435    0.40976    1.000
    Si40     Si       0.01048    0.12936    0.47631    1.000
    N41      N        0.04626    0.10536    0.48637    1.000
    Si42     Si       0.00022    0.21693    0.39562    1.000
    Si43     Si       0.02627    0.25130    0.48214    1.000
    N44      N        0.00794    0.14549    0.43336    1.000
    N45      N        0.03760    0.20181    0.40884    1.000
    Si46     Si       0.04650    0.16143    0.42538    1.000
    N47      N        0.00138    0.25949    0.40767    1.000
    N48      N        0.01760    0.11256    0.58415    1.000
    N49      N        0.01046    0.06002    0.52165    1.000
    Si50     Si       0.02676    0.07441    0.56382    1.000
    N51      N        0.00921    0.03932    0.58274    1.000
    Si52     Si       0.01106    0.01861    0.54151    1.000
    Si53     Si       0.04318    0.11596    0.61935    1.000
    Si54     Si       0.02605    0.18942    0.61290    1.000
    N55      N        0.03862    0.22281    0.51344    1.000
    Si56     Si       0.04189    0.18063    0.50515    1.000
    Si57     Si       0.03795    0.23645    0.55552    1.000
    N58      N        0.00240    0.16012    0.50770    1.000
    N59      N        0.99842    0.24788    0.56750    1.000
    N60      N        0.99703    0.02148    0.64979    1.000
    N61      N        0.01373    0.03781    0.70729    1.000
    Si62     Si       0.02157    0.05102    0.66716    1.000
    N63      N        0.02202    0.09266    0.65213    1.000
    Si64     Si       0.04128    0.03861    0.74055    1.000
    Si65     Si       0.98826    0.06682    0.73118    1.000
    N66      N        0.03941    0.15665    0.63688    1.000
    N67      N        0.99684    0.15037    0.68705    1.000
    Si68     Si       0.04259    0.15547    0.68271    1.000
    N69      N        0.01804    0.22270    0.63941    1.000
    N70      N        0.02044    0.11076    0.82129    1.000
    N71      N        0.01718    0.06596    0.76502    1.000
    N72      N        0.03171    0.04527    0.83151    1.000
    Si73     Si       0.00855    0.07263    0.80724    1.000
    Si74     Si       0.03650    0.10047    0.85951    1.000
    Si75     Si       0.01419    0.03812    0.87053    1.000
    N76      N        0.01379    0.18253    0.84697    1.000
    N77      N        0.00569    0.16481    0.77934    1.000
    Si78     Si       0.02877    0.15259    0.81742    1.000
    N79      N        0.03575    0.25312    0.81257    1.000
    Si80     Si       0.03974    0.25591    0.76956    1.000
    Si81     Si       0.04562    0.17665    0.76406    1.000
    N82      N        0.05243    0.21696    0.75356    1.000
    Si83     Si       0.02320    0.07428    0.97282    1.000
    N84      N        0.00677    0.07848    0.88395    1.000
    N85      N        0.02692    0.11660    0.98610    1.000
    N86      N        0.04256    0.01669    0.89522    1.000
    N87      N        0.00422    0.18739    0.96491    1.000
    N88      N        0.03911    0.20584    0.90669    1.000
    Si89     Si       0.02445    0.24662    0.89904    1.000
    Si90     Si       0.04418    0.19849    0.95019    1.000
    N91      N        0.98962    0.24993    0.87341    1.000
    N92      N        0.02767    0.33235    0.10019    1.000
    N93      N        0.01018    0.34084    0.03670    1.000
    Si94     Si       0.00012    0.29964    0.10754    1.000
    Si95     Si       0.04402    0.35167    0.06277    1.000
    N96      N        0.03388    0.26587    0.06704    1.000
    N97      N        0.05037    0.29443    0.00319    1.000
    Si98     Si       0.99491    0.26149    0.04706    1.000
    Si99     Si       0.02171    0.32603    0.99649    1.000
    Si100    Si       0.02362    0.42012    0.04182    1.000
    N101     N        0.02892    0.46491    0.04676    1.000
    N102     N        0.01407    0.41876    0.99959    1.000
    Si103    Si       0.98782    0.46642    0.06331    1.000
    N104     N        0.98899    0.49390    0.09641    1.000
    N105     N        0.01398    0.26054    0.13122    1.000
    Si106    Si       0.99833    0.31841    0.18151    1.000
    N107     N        0.03643    0.33797    0.17101    1.000
    Si108    Si       0.03715    0.35973    0.13369    1.000
    N109     N        0.01661    0.28241    0.19691    1.000
    Si110    Si       0.04292    0.28127    0.23224    1.000
    N111     N        0.03956    0.43089    0.24735    1.000
    Si112    Si       0.00689    0.41902    0.16364    1.000
    N113     N        0.01030    0.49164    0.21074    1.000
    Si114    Si       0.00716    0.49009    0.13813    1.000
    Si115    Si       0.03927    0.45837    0.21406    1.000
    N116     N        0.99144    0.40010    0.19937    1.000
    Si117    Si       0.02850    0.39409    0.22498    1.000
    N118     N        0.00668    0.39130    0.12943    1.000
    N119     N        0.04619    0.42698    0.18178    1.000
    N120     N        0.02421    0.29994    0.26652    1.000
    N121     N        0.02751    0.34128    0.31702    1.000
    Si122    Si       0.00342    0.34774    0.35298    1.000
    Si123    Si       0.02450    0.37662    0.29356    1.000
    N124     N        0.00039    0.37467    0.25635    1.000
    N125     N        0.00460    0.30712    0.36978    1.000
    N126     N        0.01134    0.47856    0.33221    1.000
    N127     N        0.00328    0.40615    0.31975    1.000
    N128     N        0.05125    0.31686    0.42397    1.000
    Si129    Si       0.01898    0.34775    0.42108    1.000
    N130     N        0.02398    0.37022    0.38498    1.000
    Si131    Si       0.03061    0.28943    0.39777    1.000
    N132     N        0.03043    0.29515    0.49366    1.000
    N133     N        0.02193    0.38065    0.44979    1.000
    Si134    Si       0.03469    0.41160    0.39324    1.000
    Si135    Si       0.00185    0.45772    0.48541    1.000
    N136     N        0.99553    0.43329    0.38743    1.000
    N137     N        0.04150    0.44406    0.47286    1.000
    N138     N        0.00798    0.49989    0.47656    1.000
    N139     N        0.03019    0.36717    0.61022    1.000
    Si140    Si       0.03885    0.30603    0.53613    1.000
    Si141    Si       0.04040    0.37634    0.56856    1.000
    N142     N        0.99682    0.31270    0.54825    1.000
    N143     N        0.00334    0.37900    0.54625    1.000
    Si144    Si       0.02875    0.44567    0.61130    1.000
    N145     N        0.03417    0.42549    0.57183    1.000
    N146     N        0.03527    0.48450    0.59760    1.000
    Si147    Si       0.99546    0.42046    0.55211    1.000
    Si148    Si       0.01144    0.28096    0.71053    1.000
    Si149    Si       0.01459    0.36074    0.70557    1.000
    N150     N        0.02627    0.32141    0.71981    1.000
    N151     N        0.99354    0.34643    0.67013    1.000
    Si152    Si       0.99485    0.35322    0.62599    1.000
    N153     N        0.04709    0.25927    0.69811    1.000
    N154     N        0.04733    0.38924    0.70535    1.000
    N155     N        0.99569    0.43671    0.69070    1.000
    Si156    Si       0.03829    0.42864    0.68951    1.000
    N157     N        0.01353    0.50020    0.66946    1.000
    Si158    Si       0.00362    0.27176    0.83920    1.000
    N159     N        0.01859    0.31628    0.83972    1.000
    Si160    Si       0.99689    0.35250    0.82703    1.000
    N161     N        0.00235    0.26980    0.75105    1.000
    N162     N        0.02034    0.38483    0.80720    1.000
    Si163    Si       0.00101    0.49396    0.80364    1.000
    N164     N        0.01980    0.45770    0.79072    1.000
    Si165    Si       0.00083    0.42305    0.80762    1.000
    N166     N        0.00701    0.50083    0.84573    1.000
    N167     N        0.03230    0.33534    0.90227    1.000
    Si168    Si       0.99712    0.36089    0.90371    1.000
    N169     N        0.04206    0.35666    0.97400    1.000
    N170     N        0.01922    0.26429    0.93860    1.000
    N171     N        0.98902    0.46032    0.90601    1.000
    N172     N        0.00708    0.39562    0.92893    1.000
    Si173    Si       0.01652    0.48795    0.92274    1.000
    Si174    Si       0.03186    0.39843    0.96537    1.000
    N175     N        0.01890    0.48555    0.96795    1.000
    Si176    Si       0.99297    0.45572    0.99000    1.000
    N177     N        0.01031    0.58011    0.05458    1.000
    N178     N        0.02131    0.55572    0.11565    1.000
    N179     N        0.99492    0.61974    0.10735    1.000
    N180     N        0.04428    0.55233    0.99972    1.000
    Si181    Si       0.99375    0.61000    0.02929    1.000
    Si182    Si       0.99253    0.57798    0.09280    1.000
    Si183    Si       0.04877    0.56077    0.04244    1.000
    N184     N        0.02094    0.62413    0.99770    1.000
    Si185    Si       0.03592    0.66586    0.00297    1.000
    N186     N        0.01460    0.68623    0.10061    1.000
    N187     N        0.00288    0.69228    0.00021    1.000
    N188     N        0.04836    0.73782    0.06345    1.000
    N189     N        0.04508    0.55352    0.18146    1.000
    Si190    Si       0.01171    0.62328    0.14746    1.000
    Si191    Si       0.00854    0.55660    0.15740    1.000
    N192     N        0.99800    0.62460    0.23032    1.000
    Si193    Si       0.04324    0.52274    0.21196    1.000
    N194     N        0.98972    0.59218    0.16764    1.000
    Si195    Si       0.01081    0.69781    0.14245    1.000
    Si196    Si       0.99562    0.72633    0.24463    1.000
    Si197    Si       0.02072    0.66368    0.22959    1.000
    N198     N        0.03419    0.71250    0.23612    1.000
    N199     N        0.00297    0.66105    0.16694    1.000
    N200     N        0.04659    0.71644    0.15924    1.000
    Si201    Si       0.00716    0.55220    0.26516    1.000
    N202     N        0.00316    0.54670    0.34702    1.000
    N203     N        0.01415    0.62209    0.34683    1.000
    Si204    Si       0.99990    0.62670    0.27411    1.000
    N205     N        0.99775    0.58720    0.28988    1.000
    Si206    Si       0.99114    0.58763    0.33363    1.000
    N207     N        0.04724    0.54295    0.25168    1.000
    Si208    Si       0.01845    0.66471    0.35661    1.000
    N209     N        0.03378    0.65301    0.27333    1.000
    N210     N        0.04031    0.69085    0.33100    1.000
    Si211    Si       0.04490    0.73308    0.33718    1.000
    N212     N        0.01271    0.75682    0.32208    1.000
    N213     N        0.04503    0.62824    0.45977    1.000
    Si214    Si       0.03661    0.53969    0.37436    1.000
    Si215    Si       0.03834    0.56836    0.43883    1.000
    N216     N        0.00453    0.59282    0.42169    1.000
    N217     N        0.02587    0.53250    0.41622    1.000
    N218     N        0.02728    0.56661    0.48208    1.000
    Si219    Si       0.01907    0.60870    0.49082    1.000
    Si220    Si       0.99064    0.51838    0.44163    1.000
    Si221    Si       0.02289    0.63403    0.42110    1.000
    N222     N        0.04757    0.65314    0.38994    1.000
    Si223    Si       0.00966    0.75821    0.40413    1.000
    N224     N        0.00409    0.70498    0.48581    1.000
    Si225    Si       0.00424    0.70180    0.44208    1.000
    N226     N        0.04354    0.74776    0.37845    1.000
    N227     N        0.04762    0.70609    0.43534    1.000
    N228     N        0.99156    0.66011    0.43273    1.000
    N229     N        0.02507    0.52802    0.54279    1.000
    Si230    Si       0.01053    0.55497    0.57467    1.000
    N231     N        0.03050    0.62386    0.52958    1.000
    N232     N        0.04326    0.58227    0.59001    1.000
    Si233    Si       0.03143    0.52681    0.49940    1.000
    Si234    Si       0.04591    0.62560    0.60390    1.000
    Si235    Si       0.00746    0.65461    0.55465    1.000
    N236     N        0.00924    0.64747    0.59880    1.000
    N237     N        0.02000    0.69475    0.54822    1.000
    Si238    Si       0.03909    0.70797    0.51204    1.000
    N239     N        0.04020    0.75603    0.58061    1.000
    Si240    Si       0.00026    0.53921    0.65287    1.000
    N241     N        0.00859    0.58941    0.72732    1.000
    N242     N        0.03260    0.56750    0.66234    1.000
    Si243    Si       0.04064    0.56983    0.70638    1.000
    N244     N        0.04788    0.72317    0.66056    1.000
    N245     N        0.02009    0.67558    0.71218    1.000
    N246     N        0.99907    0.74208    0.69387    1.000
    Si247    Si       0.01396    0.70201    0.67775    1.000
    N248     N        0.01497    0.53180    0.78555    1.000
    N249     N        0.02365    0.56669    0.84537    1.000
    N250     N        0.01219    0.60280    0.79190    1.000
    Si251    Si       0.00140    0.56535    0.80957    1.000
    Si252    Si       0.00717    0.62556    0.75491    1.000
    Si253    Si       0.01862    0.53328    0.87383    1.000
    N254     N        0.02922    0.69734    0.77583    1.000
    N255     N        0.03070    0.71922    0.84784    1.000
    Si256    Si       0.04377    0.72482    0.80666    1.000
    Si257    Si       0.99042    0.70544    0.85214    1.000
    Si258    Si       0.03229    0.58265    0.92360    1.000
    N259     N        0.03887    0.61518    0.89484    1.000
    N260     N        0.99650    0.52510    0.91149    1.000
    N261     N        0.99455    0.58370    0.94199    1.000
    Si262    Si       0.04972    0.51318    0.98157    1.000
    N263     N        0.03435    0.75608    0.91058    1.000
    N264     N        0.99635    0.64964    0.93991    1.000
    Si265    Si       0.02171    0.65488    0.90137    1.000
    N266     N        0.04979    0.68673    0.90422    1.000
    Si267    Si       0.01884    0.83911    0.04182    1.000
    N268     N        0.03209    0.79112    0.03909    1.000
    Si269    Si       0.02809    0.77366    0.08057    1.000
    N270     N        0.03349    0.83760    0.08115    1.000
    N271     N        0.04104    0.84002    0.00178    1.000
    N272     N        0.00746    0.88299    0.03859    1.000
    N273     N        0.04764    0.78319    0.11832    1.000
    N274     N        0.99360    0.99765    0.02753    1.000
    N275     N        0.00857    0.90493    0.11208    1.000
    Si276    Si       0.00492    0.91207    0.06984    1.000
    N277     N        0.04311    0.93369    0.05786    1.000
    Si278    Si       0.03690    0.00659    0.01038    1.000
    Si279    Si       0.04861    0.92942    0.01413    1.000
    Si280    Si       0.01747    0.78930    0.21676    1.000
    N281     N        0.00225    0.81895    0.18838    1.000
    Si282    Si       0.03065    0.84964    0.17668    1.000
    Si283    Si       0.04532    0.90473    0.13834    1.000
    N284     N        0.00806    0.88722    0.17769    1.000
    N285     N        0.04153    0.94250    0.16208    1.000
    Si286    Si       0.99150    0.98643    0.23332    1.000
    Si287    Si       0.01907    0.92600    0.19623    1.000
    N288     N        0.04586    0.91825    0.22807    1.000
    Si289    Si       0.00758    0.79995    0.30794    1.000
    N290     N        0.99899    0.83378    0.33852    1.000
    Si291    Si       0.99621    0.87565    0.32455    1.000
    N292     N        0.02168    0.80222    0.25774    1.000
    N293     N        0.02785    0.89988    0.34153    1.000
    Si294    Si       0.00958    0.93953    0.35042    1.000
    N295     N        0.03765    0.97266    0.34315    1.000
    N296     N        0.02984    0.98650    0.25237    1.000
    Si297    Si       0.99567    0.76896    0.48617    1.000
    N298     N        0.99832    0.86767    0.40173    1.000
    Si299    Si       0.04237    0.86550    0.40857    1.000
    Si300    Si       0.01373    0.80919    0.44191    1.000
    N301     N        0.00843    0.87798    0.48455    1.000
    N302     N        0.02233    0.76518    0.44979    1.000
    N303     N        0.04547    0.83689    0.44024    1.000
    N304     N        0.99494    0.79860    0.40406    1.000
    Si305    Si       0.04804    0.87488    0.46805    1.000
    Si306    Si       0.99902    0.92335    0.49078    1.000
    N307     N        0.99772    0.94078    0.39176    1.000
    N308     N        0.02620    0.98194    0.43994    1.000
    N309     N        0.03997    0.93767    0.48817    1.000
    Si310    Si       0.04705    0.94467    0.44772    1.000
    Si311    Si       0.01065    0.83646    0.55803    1.000
    N312     N        0.02626    0.87082    0.58252    1.000
    Si313    Si       0.00744    0.77095    0.60517    1.000
    N314     N        0.04295    0.81886    0.53317    1.000
    Si315    Si       0.04418    0.77584    0.54011    1.000
    N316     N        0.00441    0.76117    0.52721    1.000
    N317     N        0.99238    0.80409    0.58214    1.000
    Si318    Si       0.99925    0.88503    0.61780    1.000
    N319     N        0.00067    0.97455    0.59006    1.000
    N320     N        0.04395    0.98966    0.54271    1.000
    N321     N        0.03432    0.92231    0.61765    1.000
    Si322    Si       0.04246    0.96346    0.58215    1.000
    N323     N        0.01886    0.84078    0.69658    1.000
    Si324    Si       0.02022    0.82837    0.65127    1.000
    N325     N        0.02258    0.78602    0.64298    1.000
    Si326    Si       0.03453    0.76175    0.67560    1.000
    N327     N        0.99143    0.96350    0.68496    1.000
    N328     N        0.99220    0.90257    0.65970    1.000
    Si329    Si       0.02646    0.93153    0.66238    1.000
    N330     N        0.02711    0.83205    0.81429    1.000
    Si331    Si       0.02720    0.86848    0.79161    1.000
    N332     N        0.99901    0.86617    0.75764    1.000
    N333     N        0.03403    0.76481    0.79204    1.000
    Si334    Si       0.99158    0.82196    0.83694    1.000
    Si335    Si       0.00922    0.97585    0.76036    1.000
    N336     N        0.02002    0.90236    0.81920    1.000
    N337     N        0.03525    0.96144    0.85749    1.000
    N338     N        0.99938    0.97820    0.80223    1.000
    Si339    Si       0.99561    0.97348    0.84415    1.000
    N340     N        0.01663    0.93546    0.75520    1.000
    N341     N        0.04658    0.99832    0.75320    1.000
    Si342    Si       0.00647    0.78869    0.91335    1.000
    N343     N        0.01822    0.80710    0.95062    1.000
    Si344    Si       0.02402    0.84845    0.95965    1.000
    N345     N        0.00402    0.81782    0.88050    1.000
    Si346    Si       0.02305    0.79438    0.99382    1.000
    N347     N        0.00289    0.89515    0.89635    1.000
    N348     N        0.01299    0.93057    0.98887    1.000
    Si349    Si       0.01788    0.95647    0.95467    1.000
    Si350    Si       0.04340    0.89927    0.90837    1.000
    N351     N        0.02723    0.99978    0.96512    1.000
    Si352    Si       0.06743    0.12290    0.06070    1.000
    N353     N        0.09299    0.04131    0.09938    1.000
    Si354    Si       0.05973    0.02129    0.08229    1.000
    N355     N        0.10080    0.09592    0.05371    1.000
    N356     N        0.06811    0.01642    0.04101    1.000
    N357     N        0.07006    0.14727    0.09716    1.000
    N358     N        0.07415    0.14985    0.02809    1.000
    N359     N        0.07773    0.23031    0.10987    1.000
    N360     N        0.09379    0.25601    0.03847    1.000
    Si361    Si       0.09980    0.23576    0.00074    1.000
    Si362    Si       0.09559    0.18514    0.10843    1.000
    Si363    Si       0.10422    0.23851    0.07726    1.000
    N364     N        0.05878    0.04039    0.21533    1.000
    N365     N        0.08778    0.11206    0.21669    1.000
    Si366    Si       0.06948    0.07777    0.19592    1.000
    N367     N        0.09758    0.06947    0.16317    1.000
    N368     N        0.06322    0.17791    0.22429    1.000
    Si369    Si       0.08974    0.23273    0.15200    1.000
    N370     N        0.05469    0.16509    0.16251    1.000
    Si371    Si       0.08154    0.14846    0.19242    1.000
    Si372    Si       0.07635    0.22056    0.22107    1.000
    N373     N        0.05863    0.22768    0.18083    1.000
    N374     N        0.07388    0.09467    0.31674    1.000
    Si375    Si       0.07645    0.04941    0.31140    1.000
    N376     N        0.05211    0.03927    0.34844    1.000
    Si377    Si       0.05627    0.02133    0.25376    1.000
    Si378    Si       0.08187    0.12988    0.36633    1.000
    N379     N        0.09575    0.14938    0.27801    1.000
    N380     N        0.08374    0.20835    0.34987    1.000
    Si381    Si       0.09495    0.18440    0.31046    1.000
    Si382    Si       0.08536    0.25304    0.34719    1.000
    Si383    Si       0.05625    0.16037    0.26555    1.000
    N384     N        0.04971    0.18981    0.29859    1.000
    N385     N        0.04968    0.24145    0.24793    1.000
    N386     N        0.09477    0.09239    0.38031    1.000
    N387     N        0.06857    0.03574    0.41447    1.000
    N388     N        0.06410    0.03339    0.48229    1.000
    Si389    Si       0.06142    0.06415    0.38304    1.000
    Si390    Si       0.10085    0.01196    0.49600    1.000
    N391     N        0.10597    0.21723    0.41662    1.000
    Si392    Si       0.08284    0.13502    0.48893    1.000
    N393     N        0.05925    0.16780    0.46696    1.000
    N394     N        0.08766    0.15604    0.40657    1.000
    Si395    Si       0.06493    0.23266    0.41517    1.000
    N396     N        0.05805    0.25569    0.45227    1.000
    Si397    Si       0.10815    0.18607    0.38117    1.000
    N398     N        0.06731    0.07008    0.54792    1.000
    N399     N        0.08588    0.10755    0.61666    1.000
    Si400    Si       0.05234    0.06688    0.50483    1.000
    N401     N        0.07370    0.16092    0.52737    1.000
    Si402    Si       0.08447    0.18305    0.56338    1.000
    N403     N        0.05344    0.20609    0.58268    1.000
    N404     N        0.07790    0.05513    0.72846    1.000
    Si405    Si       0.09641    0.04296    0.68938    1.000
    N406     N        0.06359    0.03476    0.66170    1.000
    Si407    Si       0.10163    0.10623    0.65545    1.000
    N408     N        0.08087    0.12768    0.68532    1.000
    Si409    Si       0.05145    0.23375    0.66191    1.000
    Si410    Si       0.08905    0.13737    0.72717    1.000
    Si411    Si       0.08035    0.21133    0.71999    1.000
    N412     N        0.10767    0.17693    0.73085    1.000
    N413     N        0.05962    0.19786    0.68370    1.000
    N414     N        0.04756    0.15151    0.72996    1.000
    Si415    Si       0.07524    0.04791    0.83269    1.000
    N416     N        0.07673    0.08181    0.86158    1.000
    N417     N        0.09107    0.06125    0.79558    1.000
    N418     N        0.06841    0.15733    0.79594    1.000
    N419     N        0.08239    0.21020    0.84674    1.000
    Si420    Si       0.06971    0.25069    0.83756    1.000
    N421     N        0.05239    0.13949    0.86716    1.000
    Si422    Si       0.09198    0.12085    0.87276    1.000
    Si423    Si       0.05561    0.02030    0.93854    1.000
    Si424    Si       0.09436    0.08371    0.94444    1.000
    N425     N        0.05849    0.06186    0.95304    1.000
    N426     N        0.09908    0.10632    0.98258    1.000
    N427     N        0.10101    0.11518    0.91500    1.000
    N428     N        0.09601    0.17650    0.89593    1.000
    Si429    Si       0.10445    0.15335    0.93146    1.000
    N430     N        0.07063    0.16326    0.95556    1.000
    Si431    Si       0.05524    0.18329    0.87162    1.000
    Si432    Si       0.06647    0.13514    0.98789    1.000
    N433     N        0.06068    0.22843    0.97809    1.000
    N434     N        0.07905    0.32534    0.05543    1.000
    Si435    Si       0.06301    0.28642    0.04303    1.000
    N436     N        0.07749    0.48912    0.00587    1.000
    Si437    Si       0.06660    0.48693    0.04876    1.000
    Si438    Si       0.09308    0.41078    0.05450    1.000
    N439     N        0.09128    0.45317    0.06684    1.000
    N440     N        0.05329    0.39227    0.05313    1.000
    N441     N        0.11020    0.42026    0.01424    1.000
    N442     N        0.06240    0.36578    0.22498    1.000
    N443     N        0.08145    0.29873    0.21816    1.000
    Si444    Si       0.07101    0.33461    0.19682    1.000
    N445     N        0.07689    0.37959    0.13507    1.000
    N446     N        0.10105    0.44516    0.14626    1.000
    Si447    Si       0.08383    0.41056    0.16404    1.000
    N448     N        0.04837    0.50001    0.13519    1.000
    N449     N        0.06979    0.48906    0.21943    1.000
    Si450    Si       0.08834    0.48638    0.14396    1.000
    N451     N        0.08892    0.32307    0.29049    1.000
    Si452    Si       0.08606    0.35836    0.26280    1.000
    N453     N        0.05844    0.26480    0.31606    1.000
    Si454    Si       0.05192    0.30651    0.30239    1.000
    N455     N        0.06659    0.38774    0.28952    1.000
    N456     N        0.07259    0.46578    0.30181    1.000
    Si457    Si       0.07093    0.43124    0.27591    1.000
    N458     N        0.05850    0.43496    0.36337    1.000
    Si459    Si       0.05279    0.47255    0.34026    1.000
    N460     N        0.09229    0.32143    0.48297    1.000
    Si461    Si       0.06238    0.29843    0.46218    1.000
    N462     N        0.06177    0.26320    0.38309    1.000
    Si463    Si       0.09971    0.42400    0.38270    1.000
    Si464    Si       0.05591    0.40589    0.45806    1.000
    N465     N        0.08081    0.38917    0.49037    1.000
    Si466    Si       0.07086    0.47004    0.49081    1.000
    N467     N        0.07413    0.41137    0.41886    1.000
    Si468    Si       0.08771    0.35220    0.51135    1.000
    N469     N        0.06293    0.27235    0.55083    1.000
    N470     N        0.05586    0.34453    0.54018    1.000
    N471     N        0.07801    0.32006    0.61792    1.000
    Si472    Si       0.10549    0.26133    0.55038    1.000
    N473     N        0.08377    0.38633    0.58460    1.000
    Si474    Si       0.07846    0.43467    0.56358    1.000
    N475     N        0.06746    0.46774    0.53393    1.000
    N476     N        0.09780    0.45847    0.59570    1.000
    Si477    Si       0.05249    0.49884    0.56099    1.000
    Si478    Si       0.07371    0.36288    0.62190    1.000
    Si479    Si       0.06627    0.31973    0.73683    1.000
    N480     N        0.09117    0.31394    0.70137    1.000
    Si481    Si       0.08771    0.27404    0.68994    1.000
    N482     N        0.10208    0.37363    0.65439    1.000
    Si483    Si       0.10589    0.28982    0.62583    1.000
    N484     N        0.08565    0.26080    0.64888    1.000
    Si485    Si       0.09133    0.45702    0.63892    1.000
    N486     N        0.05937    0.46100    0.71511    1.000
    Si487    Si       0.07843    0.39484    0.73526    1.000
    Si488    Si       0.10396    0.45837    0.69867    1.000
    N489     N        0.08695    0.49252    0.66633    1.000
    N490     N        0.05405    0.43575    0.64894    1.000
    Si491    Si       0.05204    0.49762    0.69206    1.000
    N492     N        0.07437    0.35778    0.75931    1.000
    N493     N        0.07307    0.28405    0.76314    1.000
    N494     N        0.10387    0.27443    0.82267    1.000
    Si495    Si       0.06006    0.37918    0.79375    1.000
    N496     N        0.09405    0.32184    0.86716    1.000
    Si497    Si       0.05063    0.31418    0.86952    1.000
    N498     N        0.05059    0.27066    0.87264    1.000
    N499     N        0.08813    0.38966    0.82567    1.000
    N500     N        0.07210    0.49486    0.77784    1.000
    N501     N        0.07241    0.41921    0.77202    1.000
    N502     N        0.08815    0.45844    0.83214    1.000
    Si503    Si       0.05810    0.45851    0.76040    1.000
    Si504    Si       0.10521    0.48691    0.80488    1.000
    Si505    Si       0.05815    0.33538    0.93783    1.000
    N506     N        0.08929    0.36418    0.92524    1.000
    N507     N        0.07580    0.29593    0.94144    1.000
    Si508    Si       0.05199    0.26922    0.96737    1.000
    N509     N        0.05381    0.48235    0.90195    1.000
    Si510    Si       0.08579    0.46419    0.87558    1.000
    N511     N        0.06883    0.42095    0.95802    1.000
    Si512    Si       0.09788    0.40592    0.92989    1.000
    N513     N        0.10243    0.42408    0.89020    1.000
    Si514    Si       0.09148    0.44732    0.98596    1.000
    N515     N        0.07163    0.59874    0.03127    1.000
    N516     N        0.06229    0.52663    0.06650    1.000
    Si517    Si       0.05831    0.53355    0.10869    1.000
    Si518    Si       0.09024    0.63392    0.04717    1.000
    N519     N        0.08466    0.69041    0.09963    1.000
    N520     N        0.09552    0.72706    0.01899    1.000
    N521     N        0.05988    0.66751    0.04136    1.000
    Si522    Si       0.10442    0.68595    0.00299    1.000
    Si523    Si       0.04956    0.69513    0.07267    1.000
    Si524    Si       0.06686    0.75960    0.02884    1.000
    N525     N        0.08920    0.55848    0.12769    1.000
    Si526    Si       0.07241    0.57889    0.16084    1.000
    N527     N        0.09767    0.60062    0.19070    1.000
    N528     N        0.05347    0.61787    0.14875    1.000
    N529     N        0.10450    0.66744    0.15253    1.000
    N530     N        0.09574    0.71632    0.21149    1.000
    Si531    Si       0.08833    0.68019    0.23476    1.000
    Si532    Si       0.08098    0.63829    0.17755    1.000
    Si533    Si       0.05456    0.72876    0.20039    1.000
    N534     N        0.10540    0.74505    0.14633    1.000
    Si535    Si       0.08605    0.70604    0.14021    1.000
    N536     N        0.05853    0.65619    0.20891    1.000
    Si537    Si       0.08778    0.55391    0.26470    1.000
    N538     N        0.09644    0.55373    0.30817    1.000
    Si539    Si       0.05620    0.61728    0.35807    1.000
    Si540    Si       0.10166    0.52843    0.34183    1.000
    N541     N        0.06454    0.51041    0.35820    1.000
    N542     N        0.07795    0.62884    0.32252    1.000
    N543     N        0.10107    0.59534    0.26196    1.000
    Si544    Si       0.10437    0.59841    0.30580    1.000
    Si545    Si       0.06369    0.66480    0.30315    1.000
    N546     N        0.08165    0.74610    0.32015    1.000
    N547     N        0.08996    0.68878    0.27774    1.000
    N548     N        0.05815    0.57795    0.37661    1.000
    N549     N        0.08485    0.56429    0.44094    1.000
    Si550    Si       0.09445    0.57580    0.40093    1.000
    N551     N        0.07222    0.51345    0.48710    1.000
    Si552    Si       0.10399    0.53450    0.46756    1.000
    N553     N        0.10237    0.66184    0.43894    1.000
    Si554    Si       0.05978    0.74416    0.45720    1.000
    N555     N        0.10077    0.71064    0.38623    1.000
    Si556    Si       0.08534    0.75098    0.39147    1.000
    Si557    Si       0.08042    0.65009    0.47525    1.000
    Si558    Si       0.07625    0.68417    0.40939    1.000
    Si559    Si       0.08360    0.56201    0.58732    1.000
    N560     N        0.08657    0.52273    0.57194    1.000
    Si561    Si       0.07248    0.61651    0.53844    1.000
    N562     N        0.09882    0.58514    0.55501    1.000
    N563     N        0.09475    0.61629    0.50125    1.000
    N564     N        0.07285    0.64460    0.57134    1.000
    Si565    Si       0.08253    0.74817    0.58149    1.000
    N566     N        0.09233    0.71190    0.55931    1.000
    Si567    Si       0.09760    0.67817    0.58542    1.000
    N568     N        0.07156    0.68278    0.50099    1.000
    N569     N        0.06153    0.74707    0.50349    1.000
    N570     N        0.10008    0.75370    0.62039    1.000
    Si571    Si       0.10738    0.70042    0.51949    1.000
    Si572    Si       0.08892    0.62279    0.72633    1.000
    Si573    Si       0.07158    0.58331    0.65536    1.000
    N574     N        0.07685    0.59135    0.69941    1.000
    N575     N        0.07014    0.62263    0.63916    1.000
    N576     N        0.09490    0.55858    0.62967    1.000
    N577     N        0.04962    0.53156    0.72101    1.000
    N578     N        0.10704    0.65100    0.69674    1.000
    Si579    Si       0.05141    0.67754    0.74404    1.000
    Si580    Si       0.09050    0.72238    0.64841    1.000
    N581     N        0.09403    0.68531    0.62779    1.000
    Si582    Si       0.10042    0.65132    0.65277    1.000
    N583     N        0.09290    0.68773    0.74780    1.000
    N584     N        0.07248    0.56963    0.77406    1.000
    N585     N        0.07350    0.61116    0.82815    1.000
    Si586    Si       0.05224    0.53199    0.76392    1.000
    Si587    Si       0.05837    0.58800    0.86533    1.000
    Si588    Si       0.05504    0.60880    0.79024    1.000
    N589     N        0.05431    0.63516    0.75432    1.000
    N590     N        0.08582    0.72015    0.80481    1.000
    Si591    Si       0.10267    0.74766    0.83114    1.000
    Si592    Si       0.08378    0.61525    0.91634    1.000
    N593     N        0.08301    0.52045    0.95225    1.000
    N594     N        0.06441    0.59691    0.94938    1.000
    Si595    Si       0.07922    0.51756    0.91001    1.000
    N596     N        0.10077    0.59700    0.88194    1.000
    N597     N        0.05241    0.55214    0.89777    1.000
    Si598    Si       0.05463    0.59407    0.99071    1.000
    N599     N        0.10518    0.65118    0.92214    1.000
    Si600    Si       0.08097    0.68516    0.93632    1.000
    N601     N        0.08934    0.74146    0.87235    1.000
    Si602    Si       0.05176    0.72629    0.88475    1.000
    N603     N        0.08899    0.72782    0.93988    1.000
    N604     N        0.07159    0.67569    0.97959    1.000
    Si605    Si       0.05969    0.82762    0.11306    1.000
    N606     N        0.10133    0.78411    0.04594    1.000
    N607     N        0.10171    0.82848    0.10351    1.000
    Si608    Si       0.07983    0.85670    0.00459    1.000
    N609     N        0.10470    0.84945    0.03775    1.000
    Si610    Si       0.07617    0.94738    0.08151    1.000
    N611     N        0.08095    0.91829    0.11509    1.000
    N612     N        0.06115    0.98212    0.10076    1.000
    N613     N        0.06463    0.96847    0.00519    1.000
    Si614    Si       0.10146    0.98582    0.02211    1.000
    N615     N        0.08081    0.90146    0.00281    1.000
    N616     N        0.09562    0.80615    0.16528    1.000
    N617     N        0.05277    0.77188    0.19650    1.000
    N618     N        0.06066    0.84728    0.20669    1.000
    Si619    Si       0.08143    0.80758    0.20638    1.000
    Si620    Si       0.07117    0.77102    0.15439    1.000
    N621     N        0.05063    0.86005    0.14068    1.000
    Si622    Si       0.06944    0.88097    0.23083    1.000
    N623     N        0.09324    0.80476    0.24845    1.000
    N624     N        0.09350    0.99457    0.16040    1.000
    Si625    Si       0.05583    0.97891    0.14581    1.000
    N626     N        0.09291    0.97175    0.22646    1.000
    Si627    Si       0.08729    0.78820    0.32708    1.000
    Si628    Si       0.05786    0.82296    0.26913    1.000
    N629     N        0.06001    0.86600    0.27120    1.000
    N630     N        0.05392    0.80858    0.31042    1.000
    N631     N        0.09900    0.87867    0.32200    1.000
    N632     N        0.09561    0.78985    0.36907    1.000
    Si633    Si       0.06940    0.89190    0.35130    1.000
    Si634    Si       0.07017    0.97367    0.31584    1.000
    N635     N        0.06801    0.93908    0.28892    1.000
    Si636    Si       0.08681    0.90002    0.28619    1.000
    N637     N        0.08102    0.00627    0.28829    1.000
    Si638    Si       0.06001    0.95389    0.25024    1.000
    N639     N        0.08883    0.92379    0.37405    1.000
    N640     N        0.08804    0.76469    0.43157    1.000
    N641     N        0.10114    0.80172    0.48997    1.000
    N642     N        0.07461    0.85913    0.38014    1.000
    Si643    Si       0.10561    0.82806    0.38455    1.000
    N644     N        0.08181    0.87048    0.49301    1.000
    N645     N        0.05306    0.90042    0.43101    1.000
    Si646    Si       0.09086    0.91400    0.41549    1.000
    N647     N        0.08916    0.95136    0.43718    1.000
    Si648    Si       0.08091    0.83190    0.51535    1.000
    N649     N        0.09275    0.78014    0.55299    1.000
    Si650    Si       0.10117    0.76334    0.51334    1.000
    N651     N        0.09496    0.88583    0.59467    1.000
    N652     N        0.07253    0.98467    0.60323    1.000
    Si653    Si       0.06046    0.95564    0.52144    1.000
    Si654    Si       0.05610    0.90157    0.58633    1.000
    N655     N        0.05958    0.93142    0.55694    1.000
    N656     N        0.09911    0.96928    0.50665    1.000
    Si657    Si       0.09926    0.85608    0.62705    1.000
    N658     N        0.06094    0.84695    0.64733    1.000
    N659     N        0.09300    0.84234    0.71313    1.000
    Si660    Si       0.08427    0.80098    0.73002    1.000
    Si661    Si       0.05904    0.85883    0.68943    1.000
    N662     N        0.06133    0.77960    0.70355    1.000
    N663     N        0.08242    0.94397    0.73425    1.000
    Si664    Si       0.08399    0.93832    0.69182    1.000
    N665     N        0.05784    0.96172    0.66630    1.000
    N666     N        0.05669    0.90269    0.68721    1.000
    Si667    Si       0.08506    0.98833    0.74112    1.000
    Si668    Si       0.07268    0.99600    0.64372    1.000
    N669     N        0.10283    0.00282    0.70461    1.000
    N670     N        0.08790    0.78921    0.82561    1.000
    N671     N        0.07318    0.81879    0.76673    1.000
    Si672    Si       0.05549    0.80079    0.80066    1.000
    Si673    Si       0.09101    0.85787    0.75641    1.000
    N674     N        0.06153    0.88511    0.77103    1.000
    N675     N        0.07435    0.94144    0.80588    1.000
    Si676    Si       0.05967    0.92775    0.76536    1.000
    N677     N        0.08813    0.00672    0.83667    1.000
    N678     N        0.06854    0.90071    0.87106    1.000
    Si679    Si       0.05055    0.92485    0.83965    1.000
    Si680    Si       0.10549    0.97413    0.81255    1.000
    Si681    Si       0.06753    0.98913    0.87219    1.000
    N682     N        0.09125    0.79633    0.92330    1.000
    Si683    Si       0.08750    0.83923    0.93145    1.000
    Si684    Si       0.06369    0.76541    0.94316    1.000
    N685     N        0.05293    0.86617    0.93407    1.000
    N686     N        0.05847    0.76906    0.98552    1.000
    N687     N        0.10531    0.84436    0.97110    1.000
    N688     N        0.10078    0.96501    0.88683    1.000
    N689     N        0.09317    0.99726    0.94402    1.000
    Si690    Si       0.09021    0.95620    0.92654    1.000
    N691     N        0.05013    0.93801    0.93014    1.000
    Si692    Si       0.12698    0.10373    0.01648    1.000
    N693     N        0.14103    0.09816    0.11517    1.000
    N694     N        0.15209    0.04980    0.06461    1.000
    Si695    Si       0.11949    0.07223    0.08443    1.000
    N696     N        0.16080    0.07877    0.00360    1.000
    Si697    Si       0.15681    0.03980    0.02227    1.000
    N698     N        0.12198    0.02453    0.00262    1.000
    Si699    Si       0.16840    0.02424    0.09575    1.000
    N700     N        0.14292    0.14170    0.03019    1.000
    N701     N        0.11117    0.19362    0.07005    1.000
    N702     N        0.11964    0.19795    0.00056    1.000
    Si703    Si       0.11143    0.17231    0.03408    1.000
    N704     N        0.16736    0.24876    0.02281    1.000
    Si705    Si       0.10453    0.03253    0.14017    1.000
    N706     N        0.14956    0.02648    0.13514    1.000
    Si707    Si       0.12808    0.10068    0.15621    1.000
    N708     N        0.16352    0.09605    0.17824    1.000
    N709     N        0.11577    0.23888    0.22408    1.000
    N710     N        0.15409    0.13913    0.23217    1.000
    N711     N        0.11781    0.19941    0.14318    1.000
    N712     N        0.11754    0.14013    0.16837    1.000
    Si713    Si       0.14765    0.17054    0.15724    1.000
    N714     N        0.13197    0.09701    0.28141    1.000
    N715     N        0.11987    0.03907    0.32456    1.000
    Si716    Si       0.15387    0.04734    0.34839    1.000
    N717     N        0.16049    0.09025    0.35727    1.000
    Si718    Si       0.11002    0.11875    0.31055    1.000
    Si719    Si       0.11710    0.12474    0.24833    1.000
    Si720    Si       0.13859    0.23771    0.26239    1.000
    N721     N        0.11048    0.21940    0.29097    1.000
    N722     N        0.10907    0.15095    0.33993    1.000
    N723     N        0.12067    0.08281    0.43839    1.000
    Si724    Si       0.13779    0.10594    0.47247    1.000
    Si725    Si       0.13970    0.09042    0.39866    1.000
    N726     N        0.14094    0.04113    0.39480    1.000
    Si727    Si       0.11090    0.04037    0.42765    1.000
    N728     N        0.16897    0.25469    0.40110    1.000
    Si729    Si       0.14275    0.23755    0.43093    1.000
    N730     N        0.14670    0.17458    0.39661    1.000
    N731     N        0.15226    0.20718    0.45903    1.000
    Si732    Si       0.12535    0.17711    0.43697    1.000
    N733     N        0.12259    0.14568    0.46722    1.000
    N734     N        0.13549    0.09554    0.56868    1.000
    Si735    Si       0.15459    0.01700    0.54744    1.000
    N736     N        0.12060    0.03616    0.52667    1.000
    Si737    Si       0.12246    0.12522    0.59880    1.000
    N738     N        0.16287    0.06272    0.61951    1.000
    Si739    Si       0.11119    0.07482    0.54100    1.000
    N740     N        0.14584    0.00661    0.58727    1.000
    N741     N        0.10977    0.09992    0.50494    1.000
    N742     N        0.12033    0.16392    0.57886    1.000
    Si743    Si       0.14673    0.19476    0.56020    1.000
    N744     N        0.16817    0.18364    0.52629    1.000
    N745     N        0.10977    0.21896    0.55055    1.000
    N746     N        0.13891    0.12624    0.64135    1.000
    N747     N        0.12383    0.07363    0.67401    1.000
    Si748    Si       0.16007    0.08842    0.65397    1.000
    Si749    Si       0.16159    0.16355    0.65319    1.000
    N750     N        0.16613    0.21435    0.72960    1.000
    N751     N        0.14620    0.20310    0.66013    1.000
    Si752    Si       0.14748    0.23099    0.69148    1.000
    N753     N        0.10892    0.24123    0.70862    1.000
    Si754    Si       0.15978    0.12648    0.85228    1.000
    N755     N        0.11847    0.13031    0.84047    1.000
    Si756    Si       0.10774    0.07061    0.75660    1.000
    N757     N        0.16227    0.08921    0.87297    1.000
    N758     N        0.10658    0.11407    0.75930    1.000
    N759     N        0.14464    0.04900    0.74957    1.000
    N760     N        0.13984    0.16989    0.79191    1.000
    N761     N        0.14541    0.21001    0.85188    1.000
    Si762    Si       0.13733    0.19685    0.75619    1.000
    N763     N        0.11600    0.22603    0.78050    1.000
    Si764    Si       0.12006    0.20129    0.81805    1.000
    Si765    Si       0.10702    0.13860    0.79713    1.000
    Si766    Si       0.12561    0.01873    0.95997    1.000
    Si767    Si       0.15839    0.07762    0.91565    1.000
    N768     N        0.12711    0.05687    0.93725    1.000
    N769     N        0.12531    0.24742    0.90372    1.000
    Si770    Si       0.11218    0.21380    0.88020    1.000
    Si771    Si       0.15623    0.19079    0.97643    1.000
    N772     N        0.14256    0.16353    0.94559    1.000
    N773     N        0.15207    0.31223    0.04803    1.000
    Si774    Si       0.12024    0.33577    0.06908    1.000
    N775     N        0.12454    0.32225    0.11110    1.000
    N776     N        0.12028    0.37937    0.07065    1.000
    N777     N        0.14011    0.25633    0.09211    1.000
    N778     N        0.11199    0.50094    0.10918    1.000
    Si779    Si       0.12751    0.46956    0.08249    1.000
    Si780    Si       0.15664    0.39424    0.08745    1.000
    N781     N        0.15530    0.49538    0.05951    1.000
    N782     N        0.15800    0.43739    0.08475    1.000
    N783     N        0.11271    0.26727    0.16202    1.000
    Si784    Si       0.13596    0.28222    0.12886    1.000
    Si785    Si       0.11929    0.27784    0.20387    1.000
    N786     N        0.15971    0.29801    0.21064    1.000
    Si787    Si       0.13320    0.36646    0.20571    1.000
    Si788    Si       0.11606    0.35746    0.13742    1.000
    N789     N        0.10896    0.34122    0.17786    1.000
    N790     N        0.15021    0.38425    0.13105    1.000
    Si791    Si       0.14130    0.43926    0.17377    1.000
    N792     N        0.14020    0.46538    0.21192    1.000
    N793     N        0.11930    0.40391    0.18896    1.000
    Si794    Si       0.15544    0.51011    0.16945    1.000
    Si795    Si       0.11047    0.49756    0.21640    1.000
    N796     N        0.16002    0.47148    0.14766    1.000
    N797     N        0.14708    0.27935    0.27329    1.000
    N798     N        0.12050    0.27617    0.34075    1.000
    Si799    Si       0.15715    0.29695    0.35636    1.000
    Si800    Si       0.12472    0.30131    0.30374    1.000
    N801     N        0.15763    0.32463    0.32360    1.000
    Si802    Si       0.16313    0.37858    0.26817    1.000
    N803     N        0.12629    0.36542    0.24935    1.000
    N804     N        0.12352    0.43818    0.34105    1.000
    Si805    Si       0.14538    0.47027    0.36358    1.000
    Si806    Si       0.11834    0.46377    0.30282    1.000
    N807     N        0.15663    0.47817    0.27832    1.000
    N808     N        0.13116    0.49785    0.33071    1.000
    Si809    Si       0.15868    0.40808    0.35013    1.000
    N810     N        0.11421    0.43517    0.26858    1.000
    Si811    Si       0.14936    0.44702    0.24842    1.000
    N812     N        0.15661    0.32215    0.39203    1.000
    Si813    Si       0.12810    0.29996    0.48327    1.000
    N814     N        0.13506    0.27787    0.44692    1.000
    Si815    Si       0.15953    0.36482    0.39838    1.000
    N816     N        0.16081    0.44140    0.43012    1.000
    N817     N        0.11437    0.46473    0.39446    1.000
    N818     N        0.13008    0.39177    0.38256    1.000
    Si819    Si       0.12442    0.46704    0.43639    1.000
    N820     N        0.10870    0.45359    0.47619    1.000
    N821     N        0.15130    0.39597    0.48640    1.000
    N822     N        0.12512    0.35692    0.53208    1.000
    N823     N        0.13175    0.27187    0.51803    1.000
    N824     N        0.12525    0.27598    0.58720    1.000
    Si825    Si       0.16253    0.36072    0.51065    1.000
    N826     N        0.15802    0.37907    0.58881    1.000
    Si827    Si       0.12300    0.38423    0.56650    1.000
    Si828    Si       0.12192    0.49188    0.58326    1.000
    N829     N        0.15104    0.49413    0.55209    1.000
    N830     N        0.11224    0.42012    0.54133    1.000
    Si831    Si       0.11575    0.41494    0.49732    1.000
    N832     N        0.14646    0.36245    0.69645    1.000
    N833     N        0.13543    0.30716    0.65172    1.000
    Si834    Si       0.11555    0.33747    0.67624    1.000
    Si835    Si       0.16536    0.44130    0.64405    1.000
    N836     N        0.12479    0.44195    0.66150    1.000
    Si837    Si       0.12967    0.39938    0.67555    1.000
    N838     N        0.13786    0.48008    0.71606    1.000
    N839     N        0.11029    0.41446    0.71416    1.000
    N840     N        0.14699    0.33032    0.81791    1.000
    Si841    Si       0.12529    0.30285    0.84378    1.000
    N842     N        0.14821    0.28325    0.76092    1.000
    Si843    Si       0.10944    0.26769    0.77862    1.000
    N844     N        0.16433    0.28590    0.85957    1.000
    Si845    Si       0.16721    0.32001    0.77786    1.000
    Si846    Si       0.16508    0.37100    0.81578    1.000
    N847     N        0.12559    0.45716    0.78245    1.000
    N848     N        0.14764    0.41187    0.82665    1.000
    Si849    Si       0.11748    0.39817    0.85883    1.000
    Si850    Si       0.15525    0.46032    0.75152    1.000
    Si851    Si       0.10271    0.42571    0.80540    1.000
    Si852    Si       0.11434    0.34105    0.89920    1.000
    N853     N        0.14257    0.36808    0.88016    1.000
    N854     N        0.13678    0.31132    0.92123    1.000
    Si855    Si       0.11286    0.27849    0.93241    1.000
    N856     N        0.11921    0.26199    0.97200    1.000
    Si857    Si       0.16156    0.26235    0.98229    1.000
    Si858    Si       0.16020    0.44784    0.95382    1.000
    N859     N        0.10991    0.50107    0.88355    1.000
    N860     N        0.12601    0.47131    0.96722    1.000
    N861     N        0.13722    0.41046    0.94987    1.000
    Si862    Si       0.14626    0.40594    0.99342    1.000
    Si863    Si       0.11085    0.50776    0.98386    1.000
    N864     N        0.13857    0.55961    0.07474    1.000
    Si865    Si       0.15121    0.60266    0.07835    1.000
    Si866    Si       0.12619    0.54113    0.11266    1.000
    Si867    Si       0.15604    0.53476    0.04258    1.000
    N868     N        0.11711    0.62851    0.08306    1.000
    N869     N        0.14070    0.53191    0.00192    1.000
    Si870    Si       0.11726    0.66306    0.11024    1.000
    N871     N        0.15538    0.68579    0.10499    1.000
    N872     N        0.12182    0.65378    0.02220    1.000
    N873     N        0.15790    0.73864    0.05625    1.000
    Si874    Si       0.16441    0.64532    0.02254    1.000
    Si875    Si       0.12974    0.75543    0.02716    1.000
    Si876    Si       0.12225    0.60845    0.22535    1.000
    N877     N        0.11779    0.53260    0.24045    1.000
    N878     N        0.15771    0.54090    0.14087    1.000
    Si879    Si       0.15983    0.54676    0.23334    1.000
    N880     N        0.16015    0.58826    0.22229    1.000
    N881     N        0.11075    0.51129    0.17437    1.000
    N882     N        0.12309    0.65211    0.22535    1.000
    Si883    Si       0.13188    0.73636    0.22706    1.000
    N884     N        0.14495    0.59800    0.32219    1.000
    Si885    Si       0.14302    0.59036    0.36427    1.000
    Si886    Si       0.16378    0.51228    0.30275    1.000
    N887     N        0.14312    0.70415    0.32223    1.000
    Si888    Si       0.11186    0.72105    0.29864    1.000
    N889     N        0.13034    0.74757    0.26959    1.000
    Si890    Si       0.14140    0.70481    0.36661    1.000
    N891     N        0.12438    0.55013    0.37696    1.000
    N892     N        0.11687    0.61112    0.39387    1.000
    Si893    Si       0.15064    0.52649    0.40729    1.000
    N894     N        0.15967    0.62559    0.45093    1.000
    N895     N        0.12786    0.50979    0.44101    1.000
    N896     N        0.16733    0.69851    0.45150    1.000
    Si897    Si       0.16284    0.73228    0.47841    1.000
    N898     N        0.15601    0.66788    0.38839    1.000
    Si899    Si       0.13443    0.64268    0.41664    1.000
    Si900    Si       0.16647    0.66160    0.47544    1.000
    Si901    Si       0.12274    0.58647    0.51924    1.000
    N902     N        0.15723    0.61043    0.52985    1.000
    Si903    Si       0.16296    0.52463    0.51924    1.000
    N904     N        0.13053    0.54855    0.50082    1.000
    N905     N        0.14211    0.51130    0.61879    1.000
    N906     N        0.13908    0.66823    0.57793    1.000
    N907     N        0.13955    0.66959    0.50982    1.000
    Si908    Si       0.16031    0.65027    0.54376    1.000
    N909     N        0.13073    0.73428    0.50651    1.000
    Si910    Si       0.11228    0.52513    0.65102    1.000
    Si911    Si       0.14522    0.52401    0.72242    1.000
    N912     N        0.13718    0.54298    0.68259    1.000
    Si913    Si       0.15048    0.63412    0.69139    1.000
    Si914    Si       0.12443    0.69043    0.71707    1.000
    N915     N        0.16157    0.66278    0.72474    1.000
    N916     N        0.11315    0.72299    0.68678    1.000
    N917     N        0.14518    0.64303    0.64826    1.000
    N918     N        0.14537    0.72099    0.74478    1.000
    N919     N        0.13396    0.58881    0.81428    1.000
    N920     N        0.13284    0.54122    0.75952    1.000
    Si921    Si       0.11485    0.57706    0.77758    1.000
    Si922    Si       0.11370    0.61492    0.84347    1.000
    N923     N        0.12127    0.61382    0.75480    1.000
    Si924    Si       0.16325    0.52319    0.78817    1.000
    Si925    Si       0.14562    0.51239    0.86437    1.000
    N926     N        0.13628    0.51147    0.82090    1.000
    Si927    Si       0.15318    0.64336    0.76585    1.000
    N928     N        0.13969    0.67399    0.79556    1.000
    Si929    Si       0.11859    0.70998    0.77732    1.000
    N930     N        0.13986    0.64582    0.85832    1.000
    Si931    Si       0.16052    0.67685    0.83565    1.000
    N932     N        0.14064    0.74671    0.80524    1.000
    N933     N        0.16599    0.71421    0.85992    1.000
    N934     N        0.13572    0.69780    0.97447    1.000
    Si935    Si       0.12815    0.73593    0.95727    1.000
    Si936    Si       0.14507    0.64406    0.90231    1.000
    N937     N        0.14832    0.74877    0.91923    1.000
    Si938    Si       0.11802    0.81856    0.06475    1.000
    N939     N        0.16305    0.81172    0.06852    1.000
    Si940    Si       0.14863    0.94659    0.06963    1.000
    N941     N        0.14716    0.91449    0.09827    1.000
    N942     N        0.13212    0.96166    0.99781    1.000
    N943     N        0.14980    0.89575    0.00215    1.000
    N944     N        0.10898    0.95875    0.05642    1.000
    N945     N        0.14232    0.76981    0.20306    1.000
    N946     N        0.15428    0.79703    0.13670    1.000
    Si947    Si       0.12341    0.82922    0.14071    1.000
    N948     N        0.12600    0.87087    0.15159    1.000
    Si949    Si       0.14271    0.76248    0.16088    1.000
    Si950    Si       0.11729    0.97098    0.19115    1.000
    N951     N        0.13015    0.93935    0.16248    1.000
    Si952    Si       0.12081    0.90970    0.13123    1.000
    N953     N        0.15867    0.97106    0.20978    1.000
    N954     N        0.10700    0.90029    0.24664    1.000
    Si955    Si       0.13100    0.84781    0.32482    1.000
    Si956    Si       0.13005    0.79020    0.26890    1.000
    N957     N        0.11948    0.80983    0.30727    1.000
    N958     N        0.14199    0.84119    0.36549    1.000
    N959     N        0.16407    0.86705    0.30319    1.000
    Si960    Si       0.12350    0.94498    0.36128    1.000
    N961     N        0.15903    0.91900    0.35629    1.000
    Si962    Si       0.12281    0.00208    0.30269    1.000
    N963     N        0.15934    0.99063    0.28187    1.000
    N964     N        0.11099    0.97066    0.32998    1.000
    N965     N        0.12266    0.82616    0.42488    1.000
    N966     N        0.15639    0.77122    0.45433    1.000
    Si967    Si       0.14287    0.86233    0.43682    1.000
    Si968    Si       0.11677    0.79184    0.44940    1.000
    N969     N        0.15328    0.86417    0.47988    1.000
    N970     N        0.11889    0.00890    0.45587    1.000
    Si971    Si       0.12707    0.97030    0.44024    1.000
    N972     N        0.13069    0.89924    0.42016    1.000
    N973     N        0.14425    0.96420    0.40052    1.000
    N974     N        0.15642    0.95251    0.46796    1.000
    Si975    Si       0.16331    0.92203    0.40089    1.000
    Si976    Si       0.12293    0.81028    0.56597    1.000
    Si977    Si       0.12464    0.87592    0.50964    1.000
    N978     N        0.11484    0.81872    0.60748    1.000
    N979     N        0.11605    0.84546    0.53936    1.000
    N980     N        0.15895    0.78949    0.56160    1.000
    N981     N        0.13069    0.91386    0.52821    1.000
    N982     N        0.13499    0.94283    0.59673    1.000
    Si983    Si       0.11592    0.98004    0.60316    1.000
    Si984    Si       0.14058    0.95376    0.50897    1.000
    Si985    Si       0.12513    0.90839    0.57197    1.000
    Si986    Si       0.12912    0.78318    0.63133    1.000
    N987     N        0.12474    0.79499    0.67392    1.000
    Si988    Si       0.12958    0.83532    0.68959    1.000
    N989     N        0.12680    0.86865    0.66028    1.000
    N990     N        0.12334    0.78341    0.73848    1.000
    Si991    Si       0.16350    0.87547    0.74031    1.000
    Si992    Si       0.12832    0.76018    0.70171    1.000
    Si993    Si       0.13645    0.98443    0.67850    1.000
    N994     N        0.12263    0.94149    0.67570    1.000
    N995     N        0.16213    0.90808    0.71295    1.000
    Si996    Si       0.14790    0.90571    0.67253    1.000
    N997     N        0.16244    0.97961    0.71848    1.000
    N998     N        0.11707    0.00122    0.64272    1.000
    Si999    Si       0.14775    0.77849    0.77420    1.000
    N1000    N        0.15326    0.81100    0.80326    1.000
    Si1001   Si       0.12511    0.81113    0.83732    1.000
    N1002    N        0.13066    0.87032    0.76858    1.000
    Si1003   Si       0.15332    0.85601    0.80214    1.000
    N1004    N        0.11854    0.85451    0.83476    1.000
    N1005    N        0.14287    0.78103    0.86580    1.000
    Si1006   Si       0.11010    0.88357    0.86563    1.000
    N1007    N        0.14190    0.95548    0.82807    1.000
    N1008    N        0.11406    0.99051    0.77371    1.000
    Si1009   Si       0.15052    0.00532    0.75294    1.000
    Si1010   Si       0.14675    0.85754    0.98044    1.000
    N1011    N        0.14026    0.76406    0.98785    1.000
    Si1012   Si       0.11334    0.76715    0.89772    1.000
    N1013    N        0.11166    0.85993    0.90187    1.000
    N1014    N        0.16441    0.87268    0.94300    1.000
    Si1015   Si       0.14063    0.95062    0.87159    1.000
    Si1016   Si       0.11647    0.92239    0.98846    1.000
    N1017    N        0.14612    0.90890    0.88124    1.000
    N1018    N        0.16394    0.00155    0.95188    1.000
    N1019    N        0.11647    0.92406    0.94384    1.000
    Si1020   Si       0.13504    0.89339    0.92024    1.000
    N1021    N        0.20757    0.02557    0.11084    1.000
    Si1022   Si       0.17641    0.11888    0.10570    1.000
    N1023    N        0.19789    0.12357    0.06788    1.000
    N1024    N        0.21144    0.12486    0.00471    1.000
    Si1025   Si       0.22405    0.10227    0.03906    1.000
    Si1026   Si       0.22822    0.03257    0.00290    1.000
    Si1027   Si       0.20105    0.18470    0.10618    1.000
    N1028    N        0.18686    0.19121    0.06575    1.000
    Si1029   Si       0.19485    0.21810    0.03145    1.000
    Si1030   Si       0.18438    0.15380    0.03815    1.000
    N1031    N        0.18999    0.18306    0.00520    1.000
    Si1032   Si       0.20484    0.25915    0.11967    1.000
    N1033    N        0.20971    0.09768    0.12159    1.000
    N1034    N        0.20678    0.04331    0.17934    1.000
    N1035    N        0.19142    0.07769    0.24434    1.000
    Si1036   Si       0.18537    0.10942    0.21472    1.000
    Si1037   Si       0.20125    0.08305    0.16060    1.000
    Si1038   Si       0.21645    0.04862    0.22137    1.000
    Si1039   Si       0.19122    0.01483    0.15142    1.000
    N1040    N        0.21883    0.16084    0.23853    1.000
    N1041    N        0.17238    0.15860    0.12307    1.000
    N1042    N        0.20999    0.21945    0.13510    1.000
    Si1043   Si       0.17793    0.17508    0.23094    1.000
    N1044    N        0.17266    0.18422    0.18849    1.000
    N1045    N        0.19307    0.11528    0.30002    1.000
    N1046    N        0.18421    0.04929    0.30930    1.000
    Si1047   Si       0.19637    0.10769    0.34320    1.000
    Si1048   Si       0.17172    0.08160    0.28392    1.000
    Si1049   Si       0.22496    0.13507    0.27514    1.000
    N1050    N        0.20234    0.21236    0.34985    1.000
    N1051    N        0.20517    0.14432    0.36287    1.000
    N1052    N        0.17290    0.21033    0.25426    1.000
    N1053    N        0.17946    0.08969    0.47987    1.000
    Si1054   Si       0.20200    0.09873    0.44203    1.000
    N1055    N        0.17220    0.11702    0.41486    1.000
    N1056    N        0.22112    0.06821    0.41831    1.000
    Si1057   Si       0.22394    0.03254    0.44242    1.000
    N1058    N        0.22265    0.03643    0.48994    1.000
    N1059    N        0.21460    0.18301    0.41813    1.000
    Si1060   Si       0.20378    0.24781    0.37388    1.000
    Si1061   Si       0.18558    0.15631    0.39883    1.000
    Si1062   Si       0.17975    0.20890    0.49214    1.000
    N1063    N        0.22072    0.19859    0.48177    1.000
    Si1064   Si       0.20323    0.07091    0.51157    1.000
    N1065    N        0.18174    0.05370    0.54626    1.000
    N1066    N        0.21264    0.10192    0.58873    1.000
    Si1067   Si       0.17490    0.07861    0.58046    1.000
    N1068    N        0.21067    0.02150    0.60917    1.000
    N1069    N        0.17433    0.22481    0.57867    1.000
    N1070    N        0.18736    0.16366    0.61948    1.000
    N1071    N        0.19590    0.25143    0.50178    1.000
    N1072    N        0.20115    0.09405    0.66226    1.000
    Si1073   Si       0.21107    0.11983    0.69561    1.000
    N1074    N        0.19915    0.10117    0.73260    1.000
    N1075    N        0.20785    0.03393    0.72210    1.000
    Si1076   Si       0.16965    0.01969    0.62130    1.000
    N1077    N        0.18712    0.15496    0.68751    1.000
    Si1078   Si       0.19736    0.18486    0.71658    1.000
    N1079    N        0.18564    0.12578    0.81774    1.000
    N1080    N        0.20400    0.06084    0.78587    1.000
    Si1081   Si       0.20467    0.02097    0.80090    1.000
    N1082    N        0.18675    0.02843    0.84121    1.000
    Si1083   Si       0.21601    0.09409    0.81181    1.000
    Si1084   Si       0.19425    0.06184    0.86621    1.000
    Si1085   Si       0.18748    0.06239    0.74609    1.000
    N1086    N        0.20325    0.19302    0.82138    1.000
    Si1087   Si       0.18357    0.16353    0.79766    1.000
    Si1088   Si       0.18534    0.19550    0.86154    1.000
    N1089    N        0.20192    0.16454    0.75813    1.000
    N1090    N        0.21973    0.25421    0.75332    1.000
    N1091    N        0.22126    0.06215    0.96942    1.000
    N1092    N        0.17902    0.10704    0.93989    1.000
    N1093    N        0.19364    0.04790    0.90744    1.000
    Si1094   Si       0.19180    0.09499    0.97927    1.000
    Si1095   Si       0.20648    0.21307    0.93520    1.000
    Si1096   Si       0.17455    0.14677    0.92307    1.000
    N1097    N        0.17537    0.22829    0.96072    1.000
    N1098    N        0.19764    0.21962    0.89312    1.000
    Si1099   Si       0.22146    0.16236    0.98165    1.000
    N1100    N        0.20560    0.17101    0.94210    1.000
    N1101    N        0.17451    0.15642    0.88030    1.000
    Si1102   Si       0.16696    0.25857    0.89212    1.000
    N1103    N        0.21498    0.33651    0.02282    1.000
    Si1104   Si       0.20343    0.37886    0.02455    1.000
    Si1105   Si       0.17213    0.32857    0.01280    1.000
    N1106    N        0.16446    0.36996    0.00588    1.000
    N1107    N        0.20515    0.26171    0.07466    1.000
    Si1108   Si       0.16626    0.27230    0.05886    1.000
    N1109    N        0.19536    0.38783    0.06648    1.000
    Si1110   Si       0.18727    0.46733    0.06911    1.000
    N1111    N        0.21725    0.47230    0.10174    1.000
    Si1112   Si       0.21975    0.44214    0.00572    1.000
    N1113    N        0.22173    0.46873    0.03957    1.000
    Si1114   Si       0.20685    0.35323    0.21937    1.000
    Si1115   Si       0.18539    0.31545    0.17435    1.000
    N1116    N        0.20463    0.34312    0.14046    1.000
    N1117    N        0.17705    0.28367    0.14379    1.000
    N1118    N        0.17236    0.35754    0.18938    1.000
    N1119    N        0.22176    0.31635    0.19987    1.000
    Si1120   Si       0.18848    0.38264    0.15492    1.000
    N1121    N        0.18353    0.42166    0.17865    1.000
    N1122    N        0.17830    0.41488    0.24777    1.000
    Si1123   Si       0.19746    0.44705    0.14241    1.000
    Si1124   Si       0.22045    0.49817    0.20114    1.000
    Si1125   Si       0.20742    0.42497    0.21586    1.000
    N1126    N        0.21578    0.40919    0.12765    1.000
    N1127    N        0.22261    0.47828    0.16365    1.000
    N1128    N        0.19823    0.28218    0.34875    1.000
    Si1129   Si       0.18785    0.35456    0.32885    1.000
    N1130    N        0.21559    0.28581    0.27279    1.000
    N1131    N        0.18636    0.34318    0.25658    1.000
    N1132    N        0.18998    0.37575    0.36700    1.000
    Si1133   Si       0.22255    0.29852    0.31555    1.000
    Si1134   Si       0.17983    0.29974    0.25206    1.000
    N1135    N        0.18447    0.44352    0.35680    1.000
    N1136    N        0.16829    0.38882    0.30980    1.000
    Si1137   Si       0.16735    0.29451    0.42324    1.000
    N1138    N        0.18420    0.37181    0.43408    1.000
    N1139    N        0.21059    0.30354    0.43253    1.000
    Si1140   Si       0.22005    0.34529    0.43976    1.000
    N1141    N        0.16628    0.31940    0.49344    1.000
    N1142    N        0.19059    0.50574    0.49215    1.000
    N1143    N        0.21382    0.48023    0.43758    1.000
    Si1144   Si       0.17875    0.41002    0.45475    1.000
    N1145    N        0.22245    0.42320    0.40899    1.000
    N1146    N        0.21429    0.42549    0.47519    1.000
    N1147    N        0.17460    0.49668    0.38599    1.000
    Si1148   Si       0.19358    0.45842    0.40403    1.000
    N1149    N        0.18731    0.29239    0.55729    1.000
    N1150    N        0.19778    0.37119    0.53302    1.000
    Si1151   Si       0.19805    0.37520    0.57717    1.000
    N1152    N        0.21492    0.34068    0.59880    1.000
    Si1153   Si       0.17480    0.28444    0.51782    1.000
    Si1154   Si       0.16937    0.26713    0.58773    1.000
    N1155    N        0.20728    0.45407    0.53664    1.000
    Si1156   Si       0.18692    0.47343    0.56964    1.000
    N1157    N        0.21518    0.50338    0.59003    1.000
    N1158    N        0.17038    0.45057    0.60199    1.000
    N1159    N        0.22736    0.40690    0.58514    1.000
    Si1160   Si       0.21566    0.46900    0.49445    1.000
    Si1161   Si       0.17771    0.25950    0.73742    1.000
    N1162    N        0.19914    0.33029    0.66541    1.000
    N1163    N        0.19034    0.27049    0.62678    1.000
    N1164    N        0.21805    0.37484    0.71518    1.000
    N1165    N        0.17174    0.26869    0.69462    1.000
    Si1166   Si       0.17646    0.29403    0.66045    1.000
    Si1167   Si       0.18842    0.36947    0.68274    1.000
    N1168    N        0.19024    0.47504    0.65850    1.000
    N1169    N        0.17245    0.40348    0.65971    1.000
    Si1170   Si       0.19259    0.31076    0.83832    1.000
    N1171    N        0.20295    0.30492    0.79532    1.000
    N1172    N        0.19868    0.35652    0.84408    1.000
    N1173    N        0.17626    0.36434    0.77374    1.000
    N1174    N        0.18256    0.48709    0.77345    1.000
    N1175    N        0.21311    0.44844    0.82319    1.000
    Si1176   Si       0.17653    0.43899    0.84150    1.000
    Si1177   Si       0.21228    0.44895    0.77922    1.000
    Si1178   Si       0.20317    0.39014    0.75228    1.000
    N1179    N        0.17013    0.47452    0.86887    1.000
    N1180    N        0.18455    0.42937    0.75062    1.000
    Si1181   Si       0.18371    0.37083    0.88231    1.000
    N1182    N        0.19715    0.34828    0.91815    1.000
    N1183    N        0.17126    0.30430    0.97865    1.000
    Si1184   Si       0.17762    0.31244    0.93348    1.000
    N1185    N        0.19784    0.27747    0.91755    1.000
    N1186    N        0.20602    0.51002    0.98419    1.000
    N1187    N        0.19262    0.41408    0.87772    1.000
    N1188    N        0.19472    0.46237    0.93328    1.000
    Si1189   Si       0.20223    0.45448    0.89169    1.000
    N1190    N        0.17797    0.43532    0.99413    1.000
    N1191    N        0.19927    0.54283    0.03911    1.000
    Si1192   Si       0.20616    0.58307    0.02375    1.000
    N1193    N        0.17600    0.60128    0.11303    1.000
    N1194    N        0.17613    0.60991    0.04256    1.000
    Si1195   Si       0.22482    0.51068    0.02343    1.000
    N1196    N        0.18782    0.67630    0.04062    1.000
    N1197    N        0.21073    0.71631    0.09733    1.000
    Si1198   Si       0.17590    0.70348    0.07174    1.000
    Si1199   Si       0.22113    0.68750    0.01762    1.000
    Si1200   Si       0.20654    0.62520    0.12908    1.000
    Si1201   Si       0.19054    0.56719    0.13740    1.000
    N1202    N        0.20861    0.59693    0.16543    1.000
    Si1203   Si       0.19863    0.60504    0.20942    1.000
    N1204    N        0.18274    0.51986    0.20422    1.000
    Si1205   Si       0.16315    0.66665    0.23299    1.000
    N1206    N        0.17452    0.73258    0.15799    1.000
    N1207    N        0.20656    0.66528    0.14618    1.000
    Si1208   Si       0.19733    0.73414    0.19685    1.000
    Si1209   Si       0.18778    0.70104    0.13081    1.000
    N1210    N        0.19816    0.64769    0.21326    1.000
    N1211    N        0.16694    0.71087    0.22355    1.000
    Si1212   Si       0.18056    0.61358    0.30360    1.000
    N1213    N        0.19854    0.52240    0.32522    1.000
    Si1214   Si       0.21430    0.54890    0.29066    1.000
    N1215    N        0.21639    0.58937    0.30759    1.000
    N1216    N        0.17501    0.54394    0.27338    1.000
    Si1217   Si       0.21056    0.51388    0.36567    1.000
    N1218    N        0.18981    0.64939    0.33041    1.000
    N1219    N        0.20556    0.70466    0.28642    1.000
    Si1220   Si       0.17333    0.67988    0.30229    1.000
    N1221    N        0.16766    0.64754    0.27302    1.000
    Si1222   Si       0.19286    0.64401    0.37289    1.000
    N1223    N        0.18028    0.60233    0.38149    1.000
    N1224    N        0.20395    0.57684    0.48828    1.000
    N1225    N        0.18082    0.54985    0.42991    1.000
    Si1226   Si       0.18614    0.58944    0.44985    1.000
    Si1227   Si       0.20762    0.52091    0.45021    1.000
    N1228    N        0.22535    0.60561    0.43214    1.000
    Si1229   Si       0.22124    0.59057    0.39326    1.000
    N1230    N        0.22255    0.76023    0.44463    1.000
    N1231    N        0.21866    0.66866    0.40474    1.000
    Si1232   Si       0.18359    0.69515    0.41131    1.000
    N1233    N        0.17350    0.72908    0.38635    1.000
    N1234    N        0.20883    0.65973    0.48182    1.000
    Si1235   Si       0.19374    0.59126    0.52878    1.000
    N1236    N        0.18320    0.55036    0.54668    1.000
    N1237    N        0.18857    0.62732    0.59699    1.000
    Si1238   Si       0.22261    0.54265    0.56579    1.000
    Si1239   Si       0.16606    0.65955    0.61248    1.000
    N1240    N        0.19758    0.67231    0.54340    1.000
    N1241    N        0.19974    0.73092    0.50343    1.000
    N1242    N        0.21993    0.75273    0.58400    1.000
    Si1243   Si       0.21675    0.72445    0.62166    1.000
    Si1244   Si       0.22427    0.69052    0.51268    1.000
    Si1245   Si       0.18490    0.50910    0.62912    1.000
    N1246    N        0.19905    0.54429    0.65097    1.000
    N1247    N        0.17940    0.60307    0.69171    1.000
    N1248    N        0.18629    0.54111    0.72353    1.000
    Si1249   Si       0.17821    0.56037    0.68588    1.000
    Si1250   Si       0.22161    0.61309    0.69563    1.000
    N1251    N        0.18657    0.69551    0.62101    1.000
    Si1252   Si       0.20372    0.66762    0.74066    1.000
    N1253    N        0.21523    0.71142    0.74153    1.000
    Si1254   Si       0.18483    0.73862    0.73418    1.000
    N1255    N        0.19095    0.55606    0.79219    1.000
    N1256    N        0.20273    0.60758    0.84067    1.000
    Si1257   Si       0.17427    0.57670    0.82714    1.000
    Si1258   Si       0.21275    0.55643    0.75446    1.000
    N1259    N        0.16889    0.55053    0.86233    1.000
    Si1260   Si       0.21548    0.63729    0.81104    1.000
    N1261    N        0.19556    0.64149    0.77331    1.000
    N1262    N        0.20353    0.67392    0.82999    1.000
    N1263    N        0.20645    0.74845    0.81778    1.000
    Si1264   Si       0.16908    0.75189    0.83786    1.000
    Si1265   Si       0.17394    0.53862    0.97470    1.000
    Si1266   Si       0.18070    0.56466    0.90225    1.000
    Si1267   Si       0.18903    0.61127    0.95561    1.000
    N1268    N        0.19007    0.57771    0.98325    1.000
    N1269    N        0.16730    0.60584    0.91648    1.000
    N1270    N        0.16617    0.53709    0.93193    1.000
    N1271    N        0.17124    0.64172    0.98012    1.000
    N1272    N        0.20516    0.70211    0.97908    1.000
    Si1273   Si       0.22265    0.73595    0.95893    1.000
    Si1274   Si       0.17252    0.67976    0.96241    1.000
    N1275    N        0.21262    0.73512    0.91534    1.000
    N1276    N        0.17080    0.67596    0.91834    1.000
    Si1277   Si       0.17648    0.71610    0.90024    1.000
    Si1278   Si       0.18719    0.82988    0.03831    1.000
    Si1279   Si       0.18245    0.81613    0.10802    1.000
    N1280    N        0.19097    0.87110    0.05249    1.000
    N1281    N        0.22492    0.81176    0.10092    1.000
    N1282    N        0.17016    0.82574    0.99945    1.000
    N1283    N        0.17960    0.85674    0.12134    1.000
    Si1284   Si       0.18462    0.89110    0.09247    1.000
    N1285    N        0.18441    0.93798    0.04506    1.000
    Si1286   Si       0.19934    0.97849    0.04959    1.000
    Si1287   Si       0.18875    0.90281    0.01978    1.000
    N1288    N        0.22124    0.90620    0.11081    1.000
    N1289    N        0.16750    0.98445    0.07951    1.000
    N1290    N        0.18891    0.00993    0.01630    1.000
    Si1291   Si       0.17052    0.86696    0.16282    1.000
    Si1292   Si       0.17325    0.79954    0.21489    1.000
    N1293    N        0.20925    0.77484    0.20694    1.000
    N1294    N        0.16962    0.83743    0.19338    1.000
    N1295    N        0.20256    0.97287    0.15858    1.000
    Si1296   Si       0.18202    0.97906    0.24493    1.000
    N1297    N        0.21480    0.94889    0.24184    1.000
    Si1298   Si       0.17215    0.94530    0.17700    1.000
    N1299    N        0.18830    0.90667    0.17174    1.000
    N1300    N        0.21333    0.01090    0.24371    1.000
    Si1301   Si       0.18947    0.84737    0.27503    1.000
    N1302    N        0.20667    0.87021    0.36006    1.000
    N1303    N        0.19344    0.77109    0.32923    1.000
    N1304    N        0.22009    0.82870    0.30032    1.000
    N1305    N        0.16888    0.80979    0.25635    1.000
    N1306    N        0.20860    0.87381    0.24758    1.000
    Si1307   Si       0.22349    0.78589    0.30265    1.000
    N1308    N        0.21389    0.91484    0.30297    1.000
    Si1309   Si       0.18669    0.89524    0.32991    1.000
    Si1310   Si       0.19005    0.00432    0.31119    1.000
    N1311    N        0.17588    0.00689    0.35416    1.000
    Si1312   Si       0.19690    0.76171    0.37138    1.000
    Si1313   Si       0.19228    0.79116    0.43933    1.000
    N1314    N        0.21405    0.82159    0.46310    1.000
    N1315    N        0.18375    0.86141    0.42126    1.000
    Si1316   Si       0.19792    0.85548    0.48457    1.000
    Si1317   Si       0.18314    0.84040    0.38340    1.000
    N1318    N        0.19250    0.79844    0.39520    1.000
    Si1319   Si       0.21575    0.88923    0.43097    1.000
    N1320    N        0.20082    0.92822    0.42053    1.000
    N1321    N        0.19545    0.00195    0.42863    1.000
    N1322    N        0.22254    0.88961    0.47378    1.000
    Si1323   Si       0.19446    0.96098    0.44766    1.000
    Si1324   Si       0.16654    0.00395    0.39545    1.000
    Si1325   Si       0.19141    0.78338    0.58956    1.000
    N1326    N        0.19762    0.85185    0.52935    1.000
    N1327    N        0.21624    0.81898    0.59473    1.000
    Si1328   Si       0.19863    0.88765    0.55265    1.000
    N1329    N        0.20615    0.94942    0.59535    1.000
    N1330    N        0.20422    0.92385    0.53068    1.000
    Si1331   Si       0.20105    0.96044    0.55335    1.000
    Si1332   Si       0.17247    0.92418    0.60876    1.000
    N1333    N        0.16624    0.89142    0.58028    1.000
    N1334    N        0.16913    0.98071    0.52959    1.000
    N1335    N        0.17101    0.77396    0.62851    1.000
    Si1336   Si       0.19580    0.77649    0.66504    1.000
    Si1337   Si       0.21141    0.83772    0.70727    1.000
    N1338    N        0.21619    0.81468    0.67034    1.000
    N1339    N        0.22675    0.87815    0.69727    1.000
    N1340    N        0.16667    0.84075    0.71266    1.000
    N1341    N        0.17280    0.75710    0.69545    1.000
    Si1342   Si       0.19899    0.99723    0.69742    1.000
    N1343    N        0.21899    0.96059    0.70835    1.000
    N1344    N        0.17562    0.99853    0.65981    1.000
    Si1345   Si       0.18381    0.94205    0.72934    1.000
    Si1346   Si       0.22399    0.90167    0.66214    1.000
    N1347    N        0.18255    0.90974    0.64746    1.000
    N1348    N        0.18989    0.86237    0.77079    1.000
    N1349    N        0.18885    0.77113    0.76100    1.000
    Si1350   Si       0.22232    0.77524    0.78836    1.000
    Si1351   Si       0.22179    0.82166    0.85214    1.000
    N1352    N        0.17720    0.88543    0.82676    1.000
    N1353    N        0.21444    0.94124    0.82098    1.000
    Si1354   Si       0.17683    0.95681    0.80306    1.000
    Si1355   Si       0.20344    0.90250    0.79700    1.000
    N1356    N        0.18152    0.92759    0.76928    1.000
    N1357    N        0.17942    0.99355    0.78169    1.000
    Si1358   Si       0.18596    0.89068    0.86786    1.000
    N1359    N        0.21125    0.78383    0.87302    1.000
    N1360    N        0.19504    0.84816    0.87950    1.000
    Si1361   Si       0.17561    0.77998    0.89891    1.000
    Si1362   Si       0.17307    0.78998    0.97545    1.000
    N1363    N        0.17877    0.80479    0.93419    1.000
    N1364    N        0.21147    0.77008    0.98341    1.000
    Si1365   Si       0.19205    0.84412    0.92434    1.000
    N1366    N        0.17191    0.97452    0.89210    1.000
    Si1367   Si       0.18867    0.00424    0.91672    1.000
    N1368    N        0.22028    0.90855    0.88824    1.000
    Si1369   Si       0.16979    0.98010    0.98921    1.000
    N1370    N        0.20021    0.95055    0.98038    1.000
    N1371    N        0.26049    0.10850    0.06570    1.000
    N1372    N        0.27348    0.04709    0.09399    1.000
    Si1373   Si       0.24166    0.12100    0.10254    1.000
    Si1374   Si       0.27205    0.06669    0.05636    1.000
    N1375    N        0.23476    0.05828    0.03564    1.000
    Si1376   Si       0.24673    0.01333    0.09702    1.000
    N1377    N        0.27677    0.23277    0.07683    1.000
    N1378    N        0.24000    0.16625    0.10594    1.000
    Si1379   Si       0.27407    0.19633    0.10132    1.000
    N1380    N        0.23235    0.23473    0.02069    1.000
    Si1381   Si       0.24638    0.25624    0.05847    1.000
    Si1382   Si       0.26034    0.12363    0.17576    1.000
    N1383    N        0.26084    0.05348    0.22050    1.000
    N1384    N        0.27335    0.11225    0.13562    1.000
    Si1385   Si       0.27787    0.08944    0.23837    1.000
    N1386    N        0.22277    0.10776    0.19012    1.000
    N1387    N        0.24946    0.22293    0.20420    1.000
    Si1388   Si       0.28420    0.24949    0.21224    1.000
    Si1389   Si       0.24974    0.18230    0.21773    1.000
    Si1390   Si       0.24149    0.20598    0.16214    1.000
    N1391    N        0.27620    0.21710    0.13998    1.000
    N1392    N        0.24975    0.16639    0.17671    1.000
    N1393    N        0.25267    0.09956    0.27283    1.000
    Si1394   Si       0.26043    0.08113    0.31075    1.000
    N1395    N        0.26919    0.03737    0.30569    1.000
    N1396    N        0.23542    0.08272    0.34616    1.000
    N1397    N        0.23887    0.16492    0.30278    1.000
    N1398    N        0.26117    0.22705    0.28555    1.000
    Si1399   Si       0.27305    0.18705    0.28543    1.000
    N1400    N        0.26526    0.18693    0.36663    1.000
    Si1401   Si       0.22821    0.17763    0.34275    1.000
    N1402    N        0.25895    0.02230    0.37266    1.000
    N1403    N        0.26626    0.01983    0.43983    1.000
    Si1404   Si       0.25111    0.06519    0.38191    1.000
    Si1405   Si       0.25551    0.11648    0.48866    1.000
    N1406    N        0.27766    0.08198    0.47199    1.000
    N1407    N        0.23051    0.12834    0.45439    1.000
    N1408    N        0.23933    0.24781    0.40119    1.000
    Si1409   Si       0.24111    0.17187    0.45498    1.000
    N1410    N        0.27508    0.19186    0.43528    1.000
    Si1411   Si       0.24915    0.20524    0.40306    1.000
    Si1412   Si       0.23854    0.23821    0.49570    1.000
    Si1413   Si       0.24170    0.11733    0.56109    1.000
    N1414    N        0.23317    0.10117    0.52298    1.000
    N1415    N        0.28149    0.10856    0.57757    1.000
    N1416    N        0.24748    0.16129    0.57004    1.000
    N1417    N        0.25926    0.22593    0.53280    1.000
    Si1418   Si       0.26351    0.18257    0.53464    1.000
    Si1419   Si       0.27506    0.25068    0.56473    1.000
    Si1420   Si       0.22845    0.17024    0.61021    1.000
    N1421    N        0.26911    0.15638    0.49946    1.000
    N1422    N        0.25968    0.06547    0.62700    1.000
    N1423    N        0.27588    0.06589    0.70593    1.000
    Si1424   Si       0.24462    0.02312    0.63253    1.000
    Si1425   Si       0.25022    0.03221    0.71199    1.000
    Si1426   Si       0.23116    0.09966    0.63034    1.000
    N1427    N        0.25095    0.13078    0.71359    1.000
    Si1428   Si       0.24874    0.22280    0.73968    1.000
    N1429    N        0.23857    0.20911    0.62748    1.000
    Si1430   Si       0.22878    0.25139    0.62386    1.000
    N1431    N        0.25118    0.13865    0.63568    1.000
    N1432    N        0.23008    0.20807    0.70235    1.000
    Si1433   Si       0.25391    0.21753    0.66810    1.000
    N1434    N        0.24921    0.11239    0.78607    1.000
    Si1435   Si       0.27010    0.07340    0.86313    1.000
    N1436    N        0.23017    0.07979    0.84925    1.000
    Si1437   Si       0.27688    0.01269    0.77903    1.000
    Si1438   Si       0.22900    0.13000    0.75279    1.000
    N1439    N        0.24638    0.25160    0.81757    1.000
    N1440    N        0.26151    0.19878    0.77424    1.000
    Si1441   Si       0.24200    0.20790    0.81189    1.000
    N1442    N        0.26845    0.18950    0.83955    1.000
    Si1443   Si       0.23227    0.05417    0.92789    1.000
    N1444    N        0.26394    0.07677    0.90647    1.000
    N1445    N        0.26345    0.00718    0.99287    1.000
    N1446    N        0.26051    0.18009    0.98179    1.000
    Si1447   Si       0.25821    0.22364    0.98726    1.000
    N1448    N        0.24083    0.23656    0.94906    1.000
    N1449    N        0.26612    0.29287    0.04343    1.000
    Si1450   Si       0.25421    0.33554    0.04388    1.000
    N1451    N        0.24541    0.34866    0.08517    1.000
    N1452    N        0.28198    0.35824    0.02123    1.000
    N1453    N        0.23429    0.40236    0.00620    1.000
    N1454    N        0.26259    0.41905    0.07787    1.000
    Si1455   Si       0.24936    0.46091    0.07185    1.000
    Si1456   Si       0.23122    0.39085    0.09123    1.000
    Si1457   Si       0.23863    0.32711    0.12130    1.000
    N1458    N        0.24212    0.28176    0.12195    1.000
    Si1459   Si       0.26234    0.31476    0.18500    1.000
    N1460    N        0.27005    0.33701    0.14881    1.000
    N1461    N        0.27927    0.27603    0.17853    1.000
    N1462    N        0.28379    0.27842    0.24546    1.000
    Si1463   Si       0.27830    0.26071    0.13871    1.000
    Si1464   Si       0.27414    0.38576    0.21349    1.000
    Si1465   Si       0.23553    0.50147    0.12950    1.000
    N1466    N        0.23046    0.38861    0.21441    1.000
    N1467    N        0.22596    0.46374    0.22938    1.000
    N1468    N        0.27878    0.50802    0.13071    1.000
    N1469    N        0.26368    0.28879    0.31477    1.000
    Si1470   Si       0.27212    0.34776    0.31927    1.000
    Si1471   Si       0.25477    0.26701    0.27673    1.000
    N1472    N        0.22877    0.34300    0.31949    1.000
    Si1473   Si       0.25028    0.48013    0.26137    1.000
    N1474    N        0.24753    0.40974    0.35001    1.000
    N1475    N        0.23809    0.45740    0.29664    1.000
    N1476    N        0.23973    0.48027    0.36688    1.000
    Si1477   Si       0.22560    0.44779    0.33859    1.000
    N1478    N        0.24780    0.35760    0.40719    1.000
    N1479    N        0.24365    0.35069    0.47349    1.000
    Si1480   Si       0.24433    0.27774    0.43053    1.000
    N1481    N        0.28391    0.29829    0.42289    1.000
    N1482    N        0.25999    0.25661    0.46489    1.000
    N1483    N        0.25957    0.46605    0.48553    1.000
    Si1484   Si       0.27271    0.49646    0.45648    1.000
    Si1485   Si       0.27866    0.48308    0.38362    1.000
    N1486    N        0.28037    0.40808    0.45717    1.000
    N1487    N        0.27356    0.46691    0.42259    1.000
    Si1488   Si       0.24404    0.44093    0.44285    1.000
    Si1489   Si       0.22891    0.38931    0.38320    1.000
    N1490    N        0.24884    0.32787    0.54344    1.000
    Si1491   Si       0.23845    0.36121    0.51587    1.000
    N1492    N        0.24536    0.27068    0.58855    1.000
    Si1493   Si       0.22614    0.30510    0.57079    1.000
    Si1494   Si       0.28237    0.42925    0.49593    1.000
    N1495    N        0.25982    0.40032    0.51910    1.000
    N1496    N        0.26916    0.45679    0.56388    1.000
    Si1497   Si       0.25461    0.48644    0.59469    1.000
    Si1498   Si       0.23982    0.42818    0.54834    1.000
    N1499    N        0.26982    0.32738    0.63802    1.000
    Si1500   Si       0.22907    0.34374    0.63990    1.000
    Si1501   Si       0.28365    0.29138    0.66073    1.000
    N1502    N        0.25225    0.26051    0.65999    1.000
    Si1503   Si       0.25238    0.39259    0.69354    1.000
    N1504    N        0.24022    0.38468    0.65190    1.000
    N1505    N        0.25254    0.46065    0.62965    1.000
    N1506    N        0.25556    0.49622    0.69633    1.000
    Si1507   Si       0.25146    0.41528    0.62032    1.000
    Si1508   Si       0.26449    0.46260    0.72303    1.000
    N1509    N        0.24203    0.43593    0.69617    1.000
    Si1510   Si       0.23145    0.46884    0.66946    1.000
    Si1511   Si       0.24280    0.34855    0.85098    1.000
    Si1512   Si       0.26162    0.27587    0.84998    1.000
    N1513    N        0.27022    0.35590    0.81726    1.000
    Si1514   Si       0.23715    0.27979    0.78308    1.000
    N1515    N        0.27404    0.29895    0.77014    1.000
    N1516    N        0.23239    0.30610    0.85679    1.000
    N1517    N        0.23782    0.40399    0.77568    1.000
    N1518    N        0.26667    0.49604    0.82328    1.000
    Si1519   Si       0.25340    0.45620    0.83824    1.000
    N1520    N        0.24700    0.47035    0.76297    1.000
    Si1521   Si       0.26863    0.50204    0.78009    1.000
    Si1522   Si       0.27486    0.39562    0.79770    1.000
    N1523    N        0.28075    0.42376    0.83116    1.000
    N1524    N        0.25966    0.36078    0.88790    1.000
    N1525    N        0.25444    0.30689    0.93689    1.000
    Si1526   Si       0.23912    0.34551    0.92584    1.000
    N1527    N        0.26375    0.37162    0.94819    1.000
    Si1528   Si       0.24092    0.26935    0.92154    1.000
    N1529    N        0.26879    0.25796    0.88785    1.000
    Si1530   Si       0.27030    0.38612    0.99062    1.000
    N1531    N        0.25058    0.45825    0.97871    1.000
    N1532    N        0.24399    0.46301    0.88093    1.000
    Si1533   Si       0.27649    0.48560    0.89962    1.000
    Si1534   Si       0.22460    0.48321    0.95556    1.000
    N1535    N        0.26737    0.52304    0.02459    1.000
    N1536    N        0.24786    0.59252    0.01781    1.000
    N1537    N        0.24346    0.61485    0.10958    1.000
    Si1538   Si       0.25803    0.57185    0.11403    1.000
    Si1539   Si       0.27958    0.56591    0.03293    1.000
    N1540    N        0.27827    0.56509    0.07574    1.000
    N1541    N        0.22483    0.54589    0.12222    1.000
    Si1542   Si       0.27758    0.63327    0.08846    1.000
    Si1543   Si       0.25050    0.71549    0.08300    1.000
    N1544    N        0.25251    0.66040    0.01220    1.000
    N1545    N        0.24866    0.71862    0.03667    1.000
    N1546    N        0.27475    0.74722    0.09954    1.000
    N1547    N        0.26796    0.67448    0.08099    1.000
    Si1548   Si       0.28034    0.72971    0.00708    1.000
    N1549    N        0.23869    0.58499    0.21898    1.000
    Si1550   Si       0.25242    0.59725    0.17959    1.000
    N1551    N        0.25638    0.52470    0.19638    1.000
    Si1552   Si       0.26082    0.55027    0.23189    1.000
    N1553    N        0.27974    0.57357    0.15558    1.000
    N1554    N        0.23362    0.70958    0.19316    1.000
    N1555    N        0.25730    0.64019    0.18499    1.000
    Si1556   Si       0.27141    0.72483    0.20608    1.000
    Si1557   Si       0.22565    0.66787    0.18577    1.000
    Si1558   Si       0.25218    0.60468    0.32823    1.000
    N1559    N        0.24133    0.52639    0.26325    1.000
    N1560    N        0.24133    0.62176    0.36748    1.000
    N1561    N        0.28374    0.57124    0.33740    1.000
    N1562    N        0.27498    0.63701    0.30988    1.000
    Si1563   Si       0.24454    0.72272    0.27820    1.000
    N1564    N        0.26793    0.71700    0.31633    1.000
    Si1565   Si       0.27164    0.75025    0.34624    1.000
    N1566    N        0.27284    0.71084    0.24777    1.000
    Si1567   Si       0.27660    0.55640    0.37643    1.000
    N1568    N        0.23294    0.55118    0.37898    1.000
    N1569    N        0.24824    0.53284    0.45951    1.000
    N1570    N        0.26942    0.59399    0.48624    1.000
    Si1571   Si       0.24384    0.55940    0.49442    1.000
    Si1572   Si       0.27874    0.60630    0.44473    1.000
    Si1573   Si       0.25955    0.65507    0.39131    1.000
    N1574    N        0.25218    0.70603    0.47924    1.000
    Si1575   Si       0.22616    0.64595    0.44378    1.000
    Si1576   Si       0.23498    0.74615    0.48450    1.000
    N1577    N        0.23866    0.74976    0.37508    1.000
    N1578    N        0.26924    0.65061    0.43669    1.000
    Si1579   Si       0.25551    0.75401    0.41550    1.000
    N1580    N        0.28127    0.71927    0.42199    1.000
    N1581    N        0.25076    0.53876    0.53238    1.000
    N1582    N        0.23318    0.60501    0.54297    1.000
    Si1583   Si       0.27484    0.60706    0.52946    1.000
    N1584    N        0.28295    0.51769    0.58824    1.000
    N1585    N        0.23271    0.57144    0.59612    1.000
    Si1586   Si       0.22618    0.61285    0.58492    1.000
    N1587    N        0.25910    0.63791    0.59703    1.000
    N1588    N        0.25400    0.70073    0.54541    1.000
    Si1589   Si       0.25778    0.73463    0.57198    1.000
    N1590    N        0.25580    0.70828    0.60682    1.000
    Si1591   Si       0.27348    0.67078    0.57118    1.000
    Si1592   Si       0.27220    0.57110    0.74303    1.000
    N1593    N        0.26770    0.54797    0.64797    1.000
    N1594    N        0.24087    0.60955    0.65604    1.000
    N1595    N        0.23387    0.58416    0.72714    1.000
    Si1596   Si       0.23323    0.57056    0.63846    1.000
    Si1597   Si       0.28060    0.52518    0.68162    1.000
    Si1598   Si       0.27131    0.63145    0.63755    1.000
    N1599    N        0.28436    0.69717    0.72788    1.000
    N1600    N        0.23019    0.75049    0.65417    1.000
    Si1601   Si       0.27544    0.65909    0.70198    1.000
    N1602    N        0.23306    0.65232    0.70974    1.000
    N1603    N        0.28244    0.66897    0.66011    1.000
    N1604    N        0.25796    0.57079    0.83587    1.000
    N1605    N        0.25082    0.53857    0.76356    1.000
    Si1606   Si       0.23696    0.59704    0.86495    1.000
    Si1607   Si       0.27851    0.53327    0.84166    1.000
    N1608    N        0.25761    0.63073    0.80692    1.000
    Si1609   Si       0.28429    0.59479    0.81208    1.000
    Si1610   Si       0.25694    0.71620    0.75579    1.000
    N1611    N        0.25508    0.69653    0.79530    1.000
    N1612    N        0.25202    0.72225    0.85885    1.000
    Si1613   Si       0.22601    0.71001    0.82415    1.000
    N1614    N        0.28393    0.57391    0.93469    1.000
    Si1615   Si       0.25748    0.54660    0.91374    1.000
    N1616    N        0.26683    0.62212    0.88760    1.000
    Si1617   Si       0.26998    0.61510    0.92929    1.000
    Si1618   Si       0.25981    0.62454    0.98964    1.000
    N1619    N        0.23241    0.62013    0.95395    1.000
    N1620    N        0.24893    0.50720    0.92974    1.000
    N1621    N        0.22486    0.56947    0.89728    1.000
    N1622    N        0.26568    0.73044    0.96407    1.000
    Si1623   Si       0.23885    0.75290    0.88550    1.000
    Si1624   Si       0.24764    0.83037    0.06676    1.000
    N1625    N        0.26123    0.87189    0.05818    1.000
    Si1626   Si       0.26240    0.78968    0.11116    1.000
    Si1627   Si       0.24450    0.79097    0.00220    1.000
    N1628    N        0.27873    0.77108    0.01704    1.000
    N1629    N        0.22791    0.81801    0.03213    1.000
    N1630    N        0.28303    0.80872    0.07664    1.000
    Si1631   Si       0.25988    0.89450    0.09540    1.000
    N1632    N        0.23949    0.98433    0.06348    1.000
    N1633    N        0.26559    0.93615    0.01776    1.000
    Si1634   Si       0.27405    0.96198    0.05420    1.000
    Si1635   Si       0.28100    0.89487    0.02720    1.000
    N1636    N        0.28204    0.92907    0.08278    1.000
    N1637    N        0.27644    0.86921    0.12576    1.000
    N1638    N        0.23177    0.86066    0.17447    1.000
    Si1639   Si       0.24393    0.78548    0.22966    1.000
    Si1640   Si       0.26719    0.84191    0.16036    1.000
    N1641    N        0.27197    0.79752    0.15183    1.000
    N1642    N        0.25646    0.82562    0.23059    1.000
    N1643    N        0.28005    0.76661    0.21340    1.000
    Si1644   Si       0.23590    0.86237    0.21704    1.000
    Si1645   Si       0.22628    0.89937    0.15285    1.000
    N1646    N        0.26721    0.88977    0.23363    1.000
    Si1647   Si       0.24451    0.98274    0.23636    1.000
    N1648    N        0.25652    0.92514    0.16956    1.000
    Si1649   Si       0.24592    0.96644    0.16048    1.000
    N1650    N        0.25850    0.99364    0.19616    1.000
    N1651    N        0.26367    0.98633    0.12638    1.000
    Si1652   Si       0.26205    0.83098    0.31959    1.000
    N1653    N        0.27684    0.85366    0.35384    1.000
    N1654    N        0.26317    0.78721    0.32588    1.000
    N1655    N        0.23875    0.76377    0.26765    1.000
    Si1656   Si       0.24875    0.88234    0.36981    1.000
    Si1657   Si       0.24533    0.94181    0.31712    1.000
    N1658    N        0.25444    0.92457    0.35580    1.000
    N1659    N        0.26972    0.92823    0.28265    1.000
    N1660    N        0.27881    0.98901    0.26270    1.000
    Si1661   Si       0.23229    0.91147    0.26132    1.000
    Si1662   Si       0.26020    0.00672    0.33208    1.000
    N1663    N        0.22700    0.98164    0.31906    1.000
    N1664    N        0.26430    0.77765    0.49245    1.000
    N1665    N        0.27557    0.79358    0.42180    1.000
    Si1666   Si       0.25560    0.80777    0.45990    1.000
    N1667    N        0.25243    0.88341    0.41210    1.000
    N1668    N        0.28521    0.83930    0.46420    1.000
    Si1669   Si       0.23198    0.92396    0.49823    1.000
    N1670    N        0.22736    0.96419    0.47596    1.000
    N1671    N        0.26695    0.82189    0.54264    1.000
    N1672    N        0.24212    0.87815    0.56390    1.000
    Si1673   Si       0.22605    0.83300    0.55615    1.000
    Si1674   Si       0.28423    0.86096    0.54755    1.000
    Si1675   Si       0.26424    0.88964    0.59986    1.000
    N1676    N        0.27413    0.92972    0.58986    1.000
    N1677    N        0.27023    0.99244    0.61421    1.000
    N1678    N        0.27243    0.92542    0.51453    1.000
    Si1679   Si       0.26894    0.95110    0.54963    1.000
    N1680    N        0.23867    0.97877    0.54124    1.000
    Si1681   Si       0.24585    0.95581    0.61238    1.000
    Si1682   Si       0.24158    0.99853    0.50167    1.000
    Si1683   Si       0.23229    0.83079    0.63247    1.000
    Si1684   Si       0.26912    0.77275    0.66104    1.000
    Si1685   Si       0.27245    0.79609    0.74064    1.000
    N1686    N        0.27179    0.80752    0.63230    1.000
    N1687    N        0.24004    0.87272    0.63168    1.000
    N1688    N        0.23899    0.82598    0.73894    1.000
    N1689    N        0.24212    0.00974    0.67494    1.000
    N1690    N        0.27786    0.00686    0.73675    1.000
    Si1691   Si       0.25483    0.96628    0.68285    1.000
    N1692    N        0.24647    0.93749    0.65213    1.000
    N1693    N        0.25679    0.84248    0.86598    1.000
    Si1694   Si       0.22803    0.84311    0.77881    1.000
    N1695    N        0.22948    0.81419    0.80849    1.000
    N1696    N        0.24447    0.88136    0.79243    1.000
    N1697    N        0.25559    0.75965    0.76196    1.000
    Si1698   Si       0.25162    0.96181    0.82514    1.000
    N1699    N        0.24622    0.00098    0.80615    1.000
    N1700    N        0.27906    0.93787    0.79994    1.000
    N1701    N        0.26556    0.96483    0.86919    1.000
    Si1702   Si       0.24585    0.87105    0.89622    1.000
    N1703    N        0.26541    0.81754    0.97567    1.000
    N1704    N        0.23267    0.85665    0.93512    1.000
    Si1705   Si       0.24952    0.85852    0.97557    1.000
    N1706    N        0.28079    0.76716    0.89700    1.000
    N1707    N        0.23057    0.00823    0.93258    1.000
    N1708    N        0.26035    0.94735    0.94542    1.000
    Si1709   Si       0.25593    0.93324    0.90036    1.000
    N1710    N        0.28104    0.89681    0.90302    1.000
    Si1711   Si       0.23804    0.93084    0.98265    1.000
    N1712    N        0.22299    0.89117    0.99342    1.000
    Si1713   Si       0.26557    0.99025    0.94917    1.000
    N1714    N        0.32360    0.09327    0.09984    1.000
    N1715    N        0.30265    0.05903    0.02475    1.000
    Si1716   Si       0.30020    0.01582    0.01385    1.000
    Si1717   Si       0.30886    0.13237    0.11552    1.000
    Si1718   Si       0.31413    0.08915    0.99506    1.000
    N1719    N        0.30726    0.16974    0.09303    1.000
    Si1720   Si       0.32103    0.24803    0.08509    1.000
    N1721    N        0.29491    0.23772    0.00402    1.000
    Si1722   Si       0.32875    0.21242    0.00702    1.000
    N1723    N        0.34079    0.17988    0.03519    1.000
    Si1724   Si       0.29128    0.07287    0.12415    1.000
    N1725    N        0.32168    0.01921    0.21300    1.000
    N1726    N        0.29069    0.11554    0.20688    1.000
    Si1727   Si       0.33188    0.12755    0.21986    1.000
    N1728    N        0.30218    0.04761    0.15667    1.000
    Si1729   Si       0.28461    0.02892    0.19345    1.000
    Si1730   Si       0.34104    0.02327    0.14565    1.000
    N1731    N        0.34089    0.14319    0.14410    1.000
    N1732    N        0.32390    0.22878    0.21178    1.000
    Si1733   Si       0.32430    0.19301    0.23291    1.000
    N1734    N        0.28442    0.17875    0.24417    1.000
    N1735    N        0.31119    0.06723    0.25855    1.000
    N1736    N        0.30155    0.09758    0.32167    1.000
    Si1737   Si       0.31370    0.10151    0.36304    1.000
    Si1738   Si       0.32975    0.09420    0.28830    1.000
    Si1739   Si       0.29625    0.02852    0.27286    1.000
    N1740    N        0.33502    0.13099    0.26480    1.000
    N1741    N        0.30594    0.17680    0.31281    1.000
    Si1742   Si       0.30671    0.17461    0.35739    1.000
    Si1743   Si       0.34111    0.16464    0.29292    1.000
    N1744    N        0.30512    0.25895    0.36349    1.000
    N1745    N        0.29172    0.07750    0.39014    1.000
    N1746    N        0.33031    0.05231    0.48077    1.000
    N1747    N        0.32705    0.02119    0.40799    1.000
    Si1748   Si       0.32073    0.09491    0.47046    1.000
    Si1749   Si       0.33263    0.06261    0.40329    1.000
    Si1750   Si       0.28717    0.03853    0.47342    1.000
    Si1751   Si       0.31780    0.19383    0.44145    1.000
    Si1752   Si       0.33576    0.13381    0.42164    1.000
    N1753    N        0.31108    0.13840    0.45556    1.000
    Si1754   Si       0.33479    0.23836    0.38272    1.000
    N1755    N        0.32426    0.23412    0.42499    1.000
    N1756    N        0.31774    0.13881    0.38226    1.000
    N1757    N        0.32556    0.19812    0.48531    1.000
    N1758    N        0.31657    0.04150    0.58830    1.000
    Si1759   Si       0.29555    0.07721    0.60391    1.000
    N1760    N        0.33634    0.11752    0.50526    1.000
    N1761    N        0.33299    0.08835    0.62239    1.000
    N1762    N        0.30747    0.17115    0.54747    1.000
    N1763    N        0.31192    0.23139    0.58067    1.000
    Si1764   Si       0.29014    0.15150    0.58144    1.000
    Si1765   Si       0.33600    0.20285    0.55703    1.000
    N1766    N        0.30842    0.16323    0.61884    1.000
    Si1767   Si       0.33554    0.24319    0.61455    1.000
    Si1768   Si       0.31406    0.15715    0.50004    1.000
    N1769    N        0.31091    0.12914    0.67514    1.000
    Si1770   Si       0.30636    0.05873    0.73646    1.000
    N1771    N        0.33437    0.02957    0.71830    1.000
    N1772    N        0.31292    0.10294    0.74101    1.000
    Si1773   Si       0.28628    0.10875    0.70405    1.000
    N1774    N        0.28931    0.19612    0.67569    1.000
    Si1775   Si       0.28517    0.15627    0.65552    1.000
    Si1776   Si       0.31454    0.21043    0.70950    1.000
    N1777    N        0.32089    0.17923    0.73916    1.000
    N1778    N        0.28707    0.24026    0.72713    1.000
    Si1779   Si       0.30766    0.04507    0.82207    1.000
    N1780    N        0.29876    0.08879    0.83266    1.000
    Si1781   Si       0.33357    0.10912    0.85179    1.000
    N1782    N        0.29323    0.05341    0.78070    1.000
    Si1783   Si       0.29252    0.10049    0.78848    1.000
    N1784    N        0.28640    0.03263    0.85796    1.000
    Si1785   Si       0.33506    0.13972    0.75145    1.000
    N1786    N        0.31149    0.14187    0.79036    1.000
    Si1787   Si       0.30171    0.18440    0.78070    1.000
    Si1788   Si       0.30986    0.18888    0.84935    1.000
    N1789    N        0.32397    0.20668    0.81170    1.000
    N1790    N        0.32585    0.15024    0.86236    1.000
    Si1791   Si       0.30351    0.09391    0.92040    1.000
    N1792    N        0.31376    0.06961    0.95673    1.000
    Si1793   Si       0.32794    0.02819    0.94769    1.000
    N1794    N        0.33816    0.08930    0.89033    1.000
    N1795    N        0.28631    0.11977    0.99063    1.000
    Si1796   Si       0.32484    0.16130    0.90291    1.000
    Si1797   Si       0.30813    0.24435    0.89947    1.000
    N1798    N        0.29983    0.13596    0.92840    1.000
    Si1799   Si       0.29115    0.15546    0.96728    1.000
    N1800    N        0.32856    0.18067    0.97468    1.000
    N1801    N        0.31416    0.20330    0.89194    1.000
    Si1802   Si       0.32127    0.34425    0.01065    1.000
    Si1803   Si       0.29941    0.27792    0.01968    1.000
    N1804    N        0.33099    0.27196    0.05079    1.000
    N1805    N        0.30844    0.38082    0.10915    1.000
    N1806    N        0.31413    0.27271    0.11921    1.000
    N1807    N        0.34139    0.34132    0.05059    1.000
    Si1808   Si       0.34036    0.37208    0.08141    1.000
    Si1809   Si       0.30469    0.42113    0.09424    1.000
    Si1810   Si       0.30072    0.49672    0.03612    1.000
    Si1811   Si       0.30899    0.48577    0.11121    1.000
    N1812    N        0.31731    0.46565    0.01270    1.000
    N1813    N        0.28921    0.47720    0.07466    1.000
    N1814    N        0.34114    0.31620    0.23711    1.000
    Si1815   Si       0.30244    0.36441    0.14904    1.000
    N1816    N        0.33870    0.33805    0.15841    1.000
    N1817    N        0.28322    0.34218    0.21307    1.000
    N1818    N        0.32651    0.45466    0.20243    1.000
    Si1819   Si       0.31423    0.44479    0.24368    1.000
    Si1820   Si       0.32289    0.42816    0.16843    1.000
    N1821    N        0.29208    0.39838    0.17383    1.000
    N1822    N        0.31304    0.44650    0.12873    1.000
    Si1823   Si       0.29965    0.29419    0.33945    1.000
    Si1824   Si       0.32710    0.36069    0.35918    1.000
    N1825    N        0.33733    0.30937    0.32546    1.000
    N1826    N        0.28823    0.34286    0.27967    1.000
    Si1827   Si       0.31162    0.38258    0.27969    1.000
    N1828    N        0.28863    0.33207    0.35946    1.000
    N1829    N        0.30441    0.38653    0.32271    1.000
    Si1830   Si       0.29925    0.31804    0.24677    1.000
    N1831    N        0.29275    0.48278    0.25722    1.000
    N1832    N        0.30410    0.45280    0.36520    1.000
    Si1833   Si       0.28958    0.41392    0.35240    1.000
    N1834    N        0.29289    0.40683    0.24770    1.000
    Si1835   Si       0.28594    0.36336    0.47344    1.000
    N1836    N        0.31490    0.35669    0.44201    1.000
    N1837    N        0.32692    0.27499    0.48213    1.000
    Si1838   Si       0.30079    0.26648    0.44722    1.000
    Si1839   Si       0.28926    0.33840    0.40343    1.000
    N1840    N        0.30750    0.38875    0.38516    1.000
    Si1841   Si       0.31047    0.39933    0.42585    1.000
    N1842    N        0.34115    0.43045    0.42565    1.000
    Si1843   Si       0.34155    0.45050    0.38811    1.000
    N1844    N        0.30110    0.28439    0.55392    1.000
    N1845    N        0.31045    0.34770    0.57894    1.000
    N1846    N        0.30505    0.34096    0.50641    1.000
    Si1847   Si       0.29287    0.32693    0.54613    1.000
    Si1848   Si       0.33882    0.31294    0.49853    1.000
    Si1849   Si       0.29798    0.35868    0.61874    1.000
    N1850    N        0.33464    0.45992    0.58854    1.000
    N1851    N        0.31910    0.44325    0.51676    1.000
    Si1852   Si       0.31017    0.46906    0.55328    1.000
    Si1853   Si       0.32921    0.42655    0.61565    1.000
    N1854    N        0.29227    0.40336    0.61333    1.000
    N1855    N        0.31836    0.50741    0.53353    1.000
    Si1856   Si       0.34044    0.50932    0.49669    1.000
    Si1857   Si       0.31729    0.34634    0.69167    1.000
    N1858    N        0.29486    0.30709    0.69981    1.000
    N1859    N        0.32746    0.35717    0.64916    1.000
    Si1860   Si       0.29707    0.28126    0.73657    1.000
    N1861    N        0.31520    0.27182    0.63925    1.000
    N1862    N        0.29439    0.38216    0.70434    1.000
    Si1863   Si       0.31829    0.40654    0.72983    1.000
    N1864    N        0.30467    0.44752    0.72851    1.000
    Si1865   Si       0.33411    0.47633    0.74278    1.000
    N1866    N        0.30827    0.50430    0.65513    1.000
    N1867    N        0.34149    0.44179    0.65515    1.000
    N1868    N        0.34539    0.50208    0.70737    1.000
    N1869    N        0.29777    0.29636    0.83627    1.000
    Si1870   Si       0.29418    0.32181    0.80192    1.000
    N1871    N        0.33598    0.33473    0.79387    1.000
    Si1872   Si       0.33968    0.29257    0.84687    1.000
    N1873    N        0.33845    0.27747    0.75296    1.000
    Si1874   Si       0.34480    0.37770    0.79548    1.000
    N1875    N        0.31087    0.39399    0.77232    1.000
    Si1876   Si       0.31852    0.42153    0.85483    1.000
    N1877    N        0.31038    0.50029    0.77078    1.000
    N1878    N        0.34148    0.38796    0.83795    1.000
    N1879    N        0.31057    0.26602    0.93714    1.000
    N1880    N        0.30940    0.30681    0.98938    1.000
    N1881    N        0.31535    0.33689    0.92250    1.000
    Si1882   Si       0.29739    0.30623    0.94757    1.000
    Si1883   Si       0.29173    0.37261    0.91286    1.000
    N1884    N        0.34146    0.26343    0.87938    1.000
    N1885    N        0.30826    0.46710    0.87541    1.000
    N1886    N        0.30304    0.41268    0.97929    1.000
    N1887    N        0.30748    0.40804    0.89743    1.000
    Si1888   Si       0.33119    0.44380    0.90820    1.000
    N1889    N        0.30964    0.47193    0.93873    1.000
    Si1890   Si       0.29463    0.45434    0.97630    1.000
    N1891    N        0.31565    0.57801    0.01049    1.000
    Si1892   Si       0.33554    0.60992    0.03321    1.000
    N1893    N        0.33596    0.52080    0.03931    1.000
    N1894    N        0.30210    0.63065    0.05081    1.000
    N1895    N        0.30583    0.63415    0.12103    1.000
    N1896    N        0.31073    0.69954    0.01525    1.000
    Si1897   Si       0.31881    0.74225    0.10187    1.000
    N1898    N        0.33542    0.70343    0.10748    1.000
    Si1899   Si       0.28635    0.67055    0.03899    1.000
    N1900    N        0.33181    0.75978    0.06271    1.000
    N1901    N        0.30417    0.55490    0.23565    1.000
    Si1902   Si       0.28849    0.53171    0.16753    1.000
    N1903    N        0.32581    0.61016    0.18733    1.000
    Si1904   Si       0.31628    0.60017    0.14666    1.000
    Si1905   Si       0.33096    0.58551    0.22498    1.000
    N1906    N        0.33129    0.52169    0.17096    1.000
    Si1907   Si       0.33704    0.64580    0.21207    1.000
    Si1908   Si       0.33781    0.66271    0.12060    1.000
    Si1909   Si       0.33747    0.70724    0.18356    1.000
    N1910    N        0.29951    0.72611    0.17101    1.000
    N1911    N        0.33041    0.68751    0.22182    1.000
    Si1912   Si       0.32435    0.56554    0.32412    1.000
    N1913    N        0.33514    0.53804    0.29263    1.000
    Si1914   Si       0.31920    0.51967    0.25787    1.000
    N1915    N        0.33827    0.60618    0.31837    1.000
    Si1916   Si       0.31474    0.63282    0.29135    1.000
    N1917    N        0.32284    0.61987    0.25058    1.000
    N1918    N        0.31969    0.67871    0.29386    1.000
    Si1919   Si       0.31368    0.70240    0.25857    1.000
    N1920    N        0.32898    0.74328    0.25699    1.000
    N1921    N        0.31118    0.74097    0.36297    1.000
    N1922    N        0.28850    0.67570    0.36866    1.000
    Si1923   Si       0.28351    0.67728    0.32402    1.000
    N1924    N        0.32354    0.61179    0.45041    1.000
    N1925    N        0.30192    0.52052    0.38315    1.000
    Si1926   Si       0.33122    0.58722    0.41468    1.000
    N1927    N        0.28875    0.58670    0.40501    1.000
    Si1928   Si       0.34582    0.52643    0.38651    1.000
    N1929    N        0.31418    0.50591    0.46208    1.000
    N1930    N        0.34586    0.69682    0.41415    1.000
    Si1931   Si       0.28346    0.68947    0.45423    1.000
    N1932    N        0.31941    0.68332    0.47758    1.000
    Si1933   Si       0.31227    0.70706    0.38912    1.000
    N1934    N        0.30551    0.57693    0.54468    1.000
    Si1935   Si       0.29107    0.53747    0.55052    1.000
    N1936    N        0.33463    0.55695    0.61277    1.000
    N1937    N        0.34416    0.62208    0.58185    1.000
    Si1938   Si       0.34445    0.60122    0.62298    1.000
    N1939    N        0.30928    0.68387    0.59500    1.000
    Si1940   Si       0.32578    0.66095    0.51277    1.000
    N1941    N        0.29024    0.64802    0.53645    1.000
    N1942    N        0.29106    0.75816    0.55895    1.000
    Si1943   Si       0.30076    0.53303    0.62297    1.000
    N1944    N        0.30813    0.60708    0.64658    1.000
    N1945    N        0.30308    0.62631    0.71594    1.000
    Si1946   Si       0.31224    0.59467    0.68771    1.000
    N1947    N        0.29683    0.55745    0.70776    1.000
    Si1948   Si       0.33864    0.54389    0.71641    1.000
    Si1949   Si       0.33815    0.75591    0.64512    1.000
    N1950    N        0.29851    0.74252    0.64741    1.000
    Si1951   Si       0.28989    0.70110    0.63316    1.000
    N1952    N        0.31684    0.61104    0.83682    1.000
    N1953    N        0.31516    0.54740    0.82502    1.000
    N1954    N        0.29751    0.58911    0.77135    1.000
    Si1955   Si       0.31963    0.62277    0.75631    1.000
    Si1956   Si       0.33723    0.52783    0.79314    1.000
    Si1957   Si       0.34486    0.57789    0.84136    1.000
    Si1958   Si       0.30421    0.63713    0.86868    1.000
    N1959    N        0.29575    0.67388    0.84748    1.000
    N1960    N        0.31303    0.66004    0.77636    1.000
    N1961    N        0.32087    0.74006    0.84798    1.000
    N1962    N        0.31808    0.72488    0.77981    1.000
    Si1963   Si       0.29277    0.71232    0.86789    1.000
    Si1964   Si       0.32214    0.69558    0.74932    1.000
    Si1965   Si       0.28383    0.66569    0.80685    1.000
    Si1966   Si       0.31435    0.57888    0.96352    1.000
    N1967    N        0.32970    0.53525    0.96591    1.000
    N1968    N        0.29446    0.62841    0.96403    1.000
    N1969    N        0.28225    0.52824    0.88361    1.000
    N1970    N        0.33440    0.64462    0.89877    1.000
    Si1971   Si       0.33826    0.63782    0.96392    1.000
    N1972    N        0.30584    0.71099    0.90929    1.000
    Si1973   Si       0.29426    0.74560    0.93309    1.000
    Si1974   Si       0.30497    0.78927    0.04675    1.000
    N1975    N        0.32551    0.81517    0.01655    1.000
    N1976    N        0.34000    0.88212    0.09870    1.000
    N1977    N        0.34297    0.95420    0.09888    1.000
    N1978    N        0.30665    0.99170    0.05046    1.000
    N1979    N        0.32292    0.90987    0.03898    1.000
    Si1980   Si       0.32424    0.91926    0.08120    1.000
    Si1981   Si       0.32009    0.77720    0.23071    1.000
    N1982    N        0.33321    0.79309    0.19021    1.000
    N1983    N        0.30055    0.86247    0.18414    1.000
    Si1984   Si       0.30057    0.76946    0.16884    1.000
    Si1985   Si       0.31827    0.87404    0.13720    1.000
    N1986    N        0.33316    0.76762    0.13277    1.000
    Si1987   Si       0.34047    0.83733    0.18960    1.000
    Si1988   Si       0.29378    0.84940    0.24661    1.000
    Si1989   Si       0.29343    0.90686    0.18508    1.000
    N1990    N        0.30717    0.93820    0.21377    1.000
    N1991    N        0.32570    0.91346    0.15444    1.000
    Si1992   Si       0.32684    0.97635    0.20591    1.000
    N1993    N        0.33164    0.98271    0.16113    1.000
    Si1994   Si       0.31885    0.84843    0.36383    1.000
    Si1995   Si       0.32870    0.82417    0.29496    1.000
    N1996    N        0.32588    0.81439    0.25124    1.000
    N1997    N        0.32745    0.88064    0.24823    1.000
    N1998    N        0.28999    0.84290    0.28953    1.000
    N1999    N        0.34304    0.85325    0.32703    1.000
    N2000    N        0.34163    0.78496    0.31037    1.000
    Si2001   Si       0.34206    0.77143    0.35235    1.000
    N2002    N        0.29000    0.97291    0.33081    1.000
    N2003    N        0.33319    0.00738    0.28714    1.000
    Si2004   Si       0.30675    0.97064    0.29146    1.000
    N2005    N        0.33113    0.94100    0.27387    1.000
    N2006    N        0.32245    0.91416    0.36383    1.000
    Si2007   Si       0.29185    0.94271    0.36303    1.000
    Si2008   Si       0.30185    0.91619    0.25107    1.000
    N2009    N        0.32517    0.80608    0.37249    1.000
    Si2010   Si       0.32106    0.84045    0.49084    1.000
    Si2011   Si       0.31638    0.80881    0.41656    1.000
    N2012    N        0.32060    0.85652    0.40807    1.000
    Si2013   Si       0.28793    0.87091    0.43367    1.000
    Si2014   Si       0.30807    0.91474    0.49355    1.000
    Si2015   Si       0.28595    0.00678    0.40471    1.000
    N2016    N        0.29978    0.96709    0.39775    1.000
    N2017    N        0.31177    0.90272    0.45100    1.000
    N2018    N        0.33363    0.95095    0.49592    1.000
    N2019    N        0.32627    0.80506    0.51437    1.000
    N2020    N        0.30956    0.87517    0.51706    1.000
    N2021    N        0.30117    0.86574    0.58631    1.000
    N2022    N        0.33179    0.80792    0.58978    1.000
    Si2023   Si       0.30469    0.82921    0.61513    1.000
    Si2024   Si       0.28630    0.78701    0.52780    1.000
    Si2025   Si       0.33257    0.76643    0.57184    1.000
    Si2026   Si       0.33778    0.88179    0.60811    1.000
    N2027    N        0.33763    0.97957    0.60948    1.000
    N2028    N        0.30643    0.97213    0.55733    1.000
    Si2029   Si       0.31989    0.98582    0.51870    1.000
    Si2030   Si       0.30535    0.00203    0.59034    1.000
    Si2031   Si       0.32223    0.94240    0.59019    1.000
    N2032    N        0.28530    0.00809    0.50432    1.000
    N2033    N        0.33075    0.83352    0.71225    1.000
    N2034    N        0.32318    0.85577    0.64504    1.000
    Si2035   Si       0.33071    0.79114    0.70057    1.000
    N2036    N        0.28637    0.78337    0.69992    1.000
    N2037    N        0.29809    0.96838    0.68337    1.000
    Si2038   Si       0.31413    0.98930    0.71875    1.000
    Si2039   Si       0.33667    0.91345    0.73430    1.000
    N2040    N        0.32670    0.90463    0.69311    1.000
    N2041    N        0.32794    0.91858    0.62872    1.000
    N2042    N        0.32563    0.95376    0.74417    1.000
    Si2043   Si       0.32722    0.93889    0.66760    1.000
    Si2044   Si       0.30028    0.84571    0.85362    1.000
    N2045    N        0.31230    0.80661    0.83656    1.000
    N2046    N        0.30420    0.81068    0.76515    1.000
    Si2047   Si       0.33070    0.80333    0.79855    1.000
    N2048    N        0.30453    0.88142    0.83004    1.000
    Si2049   Si       0.31382    0.77695    0.86905    1.000
    Si2050   Si       0.33624    0.85009    0.75236    1.000
    N2051    N        0.31115    0.88954    0.76154    1.000
    Si2052   Si       0.31481    0.95677    0.78439    1.000
    N2053    N        0.31351    0.99797    0.79942    1.000
    N2054    N        0.33727    0.98478    0.86726    1.000
    Si2055   Si       0.28386    0.89531    0.79585    1.000
    Si2056   Si       0.34197    0.90533    0.83362    1.000
    N2057    N        0.28779    0.87775    0.98822    1.000
    N2058    N        0.32199    0.76656    0.96067    1.000
    N2059    N        0.32876    0.84921    0.88833    1.000
    N2060    N        0.32846    0.83285    0.95185    1.000
    Si2061   Si       0.30694    0.80604    0.97751    1.000
    Si2062   Si       0.32952    0.86947    0.97248    1.000
    N2063    N        0.29930    0.00290    0.92384    1.000
    Si2064   Si       0.29625    0.99543    0.87889    1.000
    Si2065   Si       0.32531    0.88958    0.90491    1.000
    N2066    N        0.34320    0.91517    0.87395    1.000
    N2067    N        0.34448    0.89534    0.94208    1.000
    N2068    N        0.33319    0.00795    0.98523    1.000
    N2069    N        0.38806    0.07413    0.06233    1.000
    Si2070   Si       0.35978    0.06810    0.09424    1.000
    Si2071   Si       0.38499    0.09508    0.02448    1.000
    N2072    N        0.34868    0.11371    0.00791    1.000
    N2073    N        0.34966    0.02712    0.10102    1.000
    N2074    N        0.37617    0.14977    0.08885    1.000
    N2075    N        0.35526    0.22174    0.08731    1.000
    Si2076   Si       0.35557    0.15472    0.00278    1.000
    Si2077   Si       0.39969    0.23084    0.07524    1.000
    Si2078   Si       0.34581    0.18054    0.07620    1.000
    Si2079   Si       0.37833    0.12876    0.12628    1.000
    N2080    N        0.38685    0.08675    0.12506    1.000
    N2081    N        0.38347    0.02280    0.15917    1.000
    N2082    N        0.35303    0.09003    0.21301    1.000
    Si2083   Si       0.34450    0.05124    0.23244    1.000
    Si2084   Si       0.36359    0.24196    0.19508    1.000
    N2085    N        0.34542    0.16628    0.20560    1.000
    N2086    N        0.37557    0.21531    0.16429    1.000
    N2087    N        0.39186    0.23790    0.22873    1.000
    N2088    N        0.39934    0.14949    0.15860    1.000
    Si2089   Si       0.36162    0.17322    0.16729    1.000
    N2090    N        0.37077    0.08443    0.29879    1.000
    Si2091   Si       0.38021    0.06794    0.33693    1.000
    N2092    N        0.38525    0.02433    0.33116    1.000
    N2093    N        0.38150    0.03897    0.25411    1.000
    N2094    N        0.35157    0.08036    0.36556    1.000
    Si2095   Si       0.39723    0.12077    0.30701    1.000
    Si2096   Si       0.38855    0.21841    0.26537    1.000
    Si2097   Si       0.37842    0.17840    0.35376    1.000
    N2098    N        0.37406    0.15630    0.31900    1.000
    N2099    N        0.35227    0.19629    0.26603    1.000
    N2100    N        0.34251    0.19960    0.36652    1.000
    Si2101   Si       0.38955    0.08120    0.44523    1.000
    N2102    N        0.39179    0.04084    0.46177    1.000
    N2103    N        0.34718    0.09275    0.43337    1.000
    N2104    N        0.39993    0.11266    0.47467    1.000
    N2105    N        0.39697    0.15451    0.38483    1.000
    N2106    N        0.35580    0.17247    0.43055    1.000
    N2107    N        0.38578    0.24266    0.47975    1.000
    Si2108   Si       0.34402    0.23619    0.49143    1.000
    Si2109   Si       0.39836    0.18160    0.42149    1.000
    Si2110   Si       0.37709    0.11139    0.51315    1.000
    N2111    N        0.38334    0.06950    0.52508    1.000
    Si2112   Si       0.35349    0.05181    0.60977    1.000
    N2113    N        0.39477    0.04895    0.59619    1.000
    Si2114   Si       0.36808    0.04123    0.49831    1.000
    N2115    N        0.39471    0.13545    0.54252    1.000
    N2116    N        0.35669    0.23573    0.53475    1.000
    N2117    N        0.36576    0.18288    0.58001    1.000
    Si2118   Si       0.39965    0.23742    0.52346    1.000
    Si2119   Si       0.36298    0.04399    0.68763    1.000
    N2120    N        0.36989    0.08683    0.68033    1.000
    N2121    N        0.35455    0.02904    0.64852    1.000
    Si2122   Si       0.34644    0.11308    0.65428    1.000
    N2123    N        0.40341    0.02756    0.69736    1.000
    Si2124   Si       0.34964    0.17491    0.62014    1.000
    N2125    N        0.35270    0.22835    0.70314    1.000
    Si2126   Si       0.36827    0.24911    0.73585    1.000
    Si2127   Si       0.38096    0.23220    0.67029    1.000
    N2128    N        0.35626    0.21386    0.63888    1.000
    N2129    N        0.37296    0.14086    0.63222    1.000
    Si2130   Si       0.38513    0.06260    0.83318    1.000
    N2131    N        0.37231    0.10412    0.83261    1.000
    N2132    N        0.34988    0.04002    0.82671    1.000
    N2133    N        0.37426    0.12984    0.76284    1.000
    Si2134   Si       0.39080    0.13180    0.80319    1.000
    N2135    N        0.38024    0.21674    0.85324    1.000
    Si2136   Si       0.36279    0.22881    0.81291    1.000
    N2137    N        0.38038    0.22394    0.77149    1.000
    N2138    N        0.40097    0.17293    0.80594    1.000
    N2139    N        0.40211    0.05611    0.87386    1.000
    N2140    N        0.39408    0.06330    0.99562    1.000
    N2141    N        0.36836    0.03488    0.93168    1.000
    Si2142   Si       0.37393    0.06911    0.90549    1.000
    Si2143   Si       0.39535    0.03177    0.96531    1.000
    N2144    N        0.40152    0.09931    0.92226    1.000
    Si2145   Si       0.36395    0.19206    0.95137    1.000
    N2146    N        0.37027    0.22824    0.92805    1.000
    N2147    N        0.36450    0.15916    0.92063    1.000
    N2148    N        0.35846    0.24308    0.99133    1.000
    Si2149   Si       0.37865    0.24238    0.88890    1.000
    N2150    N        0.39016    0.17708    0.98321    1.000
    Si2151   Si       0.40129    0.14058    0.91152    1.000
    Si2152   Si       0.36223    0.30253    0.05602    1.000
    N2153    N        0.36843    0.30568    0.10030    1.000
    N2154    N        0.37401    0.37234    0.10872    1.000
    N2155    N        0.37791    0.30380    0.01083    1.000
    Si2156   Si       0.39982    0.33578    0.10460    1.000
    Si2157   Si       0.39318    0.26329    0.01132    1.000
    N2158    N        0.38400    0.46803    0.05503    1.000
    Si2159   Si       0.38408    0.41493    0.09272    1.000
    Si2160   Si       0.35170    0.44574    0.03449    1.000
    N2161    N        0.37078    0.42844    0.99857    1.000
    Si2162   Si       0.36817    0.50724    0.06732    1.000
    N2163    N        0.34923    0.50556    0.10618    1.000
    N2164    N        0.34184    0.41523    0.06769    1.000
    Si2165   Si       0.37471    0.36595    0.15543    1.000
    N2166    N        0.35750    0.28200    0.17529    1.000
    N2167    N        0.38038    0.35203    0.20481    1.000
    Si2168   Si       0.35226    0.31985    0.19688    1.000
    Si2169   Si       0.34410    0.29890    0.13652    1.000
    N2170    N        0.35806    0.50421    0.23806    1.000
    Si2171   Si       0.39662    0.43206    0.16610    1.000
    N2172    N        0.38747    0.47140    0.17617    1.000
    Si2173   Si       0.35065    0.48991    0.19541    1.000
    N2174    N        0.36040    0.40587    0.16299    1.000
    N2175    N        0.36571    0.36883    0.33866    1.000
    Si2176   Si       0.37367    0.32919    0.32311    1.000
    N2177    N        0.39418    0.32264    0.28565    1.000
    N2178    N        0.35106    0.37667    0.27000    1.000
    Si2179   Si       0.37622    0.34639    0.25127    1.000
    N2180    N        0.34917    0.44166    0.26966    1.000
    Si2181   Si       0.37810    0.47281    0.26462    1.000
    Si2182   Si       0.38369    0.40926    0.27145    1.000
    N2183    N        0.38847    0.48802    0.30409    1.000
    Si2184   Si       0.39632    0.39805    0.34758    1.000
    N2185    N        0.40436    0.41872    0.30927    1.000
    N2186    N        0.37767    0.42937    0.37071    1.000
    Si2187   Si       0.37725    0.30211    0.38566    1.000
    Si2188   Si       0.35831    0.33810    0.43475    1.000
    N2189    N        0.36655    0.33938    0.47868    1.000
    N2190    N        0.38006    0.29512    0.42961    1.000
    N2191    N        0.38256    0.37508    0.42593    1.000
    Si2192   Si       0.40304    0.25899    0.44385    1.000
    N2193    N        0.34365    0.33171    0.39152    1.000
    N2194    N        0.37162    0.26108    0.37636    1.000
    Si2195   Si       0.38072    0.41599    0.44020    1.000
    Si2196   Si       0.40163    0.46492    0.38720    1.000
    N2197    N        0.37596    0.41131    0.48282    1.000
    N2198    N        0.36504    0.48757    0.39250    1.000
    N2199    N        0.37576    0.48234    0.49260    1.000
    N2200    N        0.38050    0.33234    0.60819    1.000
    Si2201   Si       0.37870    0.33279    0.56390    1.000
    N2202    N        0.37211    0.37289    0.54217    1.000
    N2203    N        0.35942    0.30445    0.53717    1.000
    N2204    N        0.36409    0.26837    0.59386    1.000
    Si2205   Si       0.39259    0.28970    0.61670    1.000
    Si2206   Si       0.38633    0.37265    0.50137    1.000
    Si2207   Si       0.34099    0.27021    0.55787    1.000
    Si2208   Si       0.38189    0.40566    0.56696    1.000
    N2209    N        0.36212    0.40127    0.60437    1.000
    N2210    N        0.38036    0.44376    0.54698    1.000
    Si2211   Si       0.37580    0.47307    0.57701    1.000
    Si2212   Si       0.36289    0.44369    0.50740    1.000
    Si2213   Si       0.36771    0.36697    0.63108    1.000
    N2214    N        0.35820    0.34338    0.70901    1.000
    N2215    N        0.39111    0.27080    0.65676    1.000
    Si2216   Si       0.39776    0.35887    0.69658    1.000
    N2217    N        0.40172    0.27297    0.72749    1.000
    N2218    N        0.39873    0.46401    0.67911    1.000
    N2219    N        0.36986    0.50332    0.63543    1.000
    Si2220   Si       0.34492    0.48575    0.66587    1.000
    N2221    N        0.36007    0.41467    0.71916    1.000
    Si2222   Si       0.37612    0.42643    0.67972    1.000
    N2223    N        0.38943    0.38889    0.66372    1.000
    Si2224   Si       0.36202    0.30242    0.78089    1.000
    N2225    N        0.36179    0.27267    0.81598    1.000
    Si2226   Si       0.37361    0.36774    0.86176    1.000
    N2227    N        0.35810    0.32642    0.86322    1.000
    N2228    N        0.39987    0.32080    0.77374    1.000
    N2229    N        0.38313    0.39259    0.77934    1.000
    Si2230   Si       0.38861    0.48239    0.79956    1.000
    N2231    N        0.37067    0.46368    0.76319    1.000
    N2232    N        0.35471    0.49535    0.82320    1.000
    Si2233   Si       0.34529    0.48700    0.86476    1.000
    Si2234   Si       0.38964    0.42633    0.75107    1.000
    Si2235   Si       0.39803    0.43388    0.85399    1.000
    Si2236   Si       0.37615    0.32961    0.97778    1.000
    N2237    N        0.37906    0.36555    0.90696    1.000
    N2238    N        0.36921    0.30263    0.94249    1.000
    Si2239   Si       0.35482    0.32599    0.90923    1.000
    N2240    N        0.34871    0.36171    0.98361    1.000
    Si2241   Si       0.35313    0.26335    0.95116    1.000
    N2242    N        0.35976    0.44280    0.87214    1.000
    Si2243   Si       0.38756    0.44701    0.96309    1.000
    N2244    N        0.35650    0.42601    0.93908    1.000
    N2245    N        0.38032    0.49011    0.96301    1.000
    Si2246   Si       0.34482    0.40299    0.97428    1.000
    Si2247   Si       0.34442    0.50271    0.94088    1.000
    N2248    N        0.37726    0.59751    0.04747    1.000
    N2249    N        0.38913    0.54279    0.00312    1.000
    Si2250   Si       0.39733    0.62016    0.08074    1.000
    N2251    N        0.40246    0.53467    0.06767    1.000
    Si2252   Si       0.34576    0.54480    0.00573    1.000
    N2253    N        0.35269    0.63823    0.00560    1.000
    Si2254   Si       0.39691    0.63799    0.01377    1.000
    N2255    N        0.37616    0.64565    0.11016    1.000
    N2256    N        0.36807    0.73623    0.00429    1.000
    N2257    N        0.39803    0.68037    0.00472    1.000
    Si2258   Si       0.36994    0.75650    0.04264    1.000
    Si2259   Si       0.35392    0.69246    0.99734    1.000
    N2260    N        0.34481    0.57353    0.12899    1.000
    Si2261   Si       0.35937    0.53471    0.13683    1.000
    N2262    N        0.37229    0.57159    0.22035    1.000
    Si2263   Si       0.39038    0.53583    0.23969    1.000
    Si2264   Si       0.40170    0.60127    0.20714    1.000
    Si2265   Si       0.38933    0.65719    0.15379    1.000
    N2266    N        0.34910    0.66855    0.16511    1.000
    N2267    N        0.36923    0.73416    0.17736    1.000
    N2268    N        0.37967    0.63646    0.22255    1.000
    Si2269   Si       0.36570    0.61913    0.34821    1.000
    Si2270   Si       0.37232    0.52893    0.30942    1.000
    N2271    N        0.35567    0.54329    0.34872    1.000
    N2272    N        0.40085    0.54774    0.27915    1.000
    N2273    N        0.37088    0.72715    0.31957    1.000
    Si2274   Si       0.35867    0.68560    0.31370    1.000
    N2275    N        0.37200    0.66430    0.34849    1.000
    N2276    N        0.38531    0.66562    0.28524    1.000
    Si2277   Si       0.36152    0.75403    0.28576    1.000
    N2278    N        0.39671    0.76000    0.26302    1.000
    Si2279   Si       0.40428    0.73684    0.34672    1.000
    N2280    N        0.38832    0.59478    0.45059    1.000
    N2281    N        0.35848    0.60952    0.38912    1.000
    Si2282   Si       0.36033    0.62149    0.47217    1.000
    Si2283   Si       0.37854    0.55213    0.45527    1.000
    N2284    N        0.35244    0.55132    0.42076    1.000
    Si2285   Si       0.39609    0.60628    0.41074    1.000
    N2286    N        0.38127    0.65832    0.46433    1.000
    N2287    N        0.37286    0.72563    0.48030    1.000
    Si2288   Si       0.35538    0.69316    0.45667    1.000
    N2289    N        0.38515    0.57947    0.54955    1.000
    Si2290   Si       0.37063    0.53472    0.60710    1.000
    Si2291   Si       0.38876    0.53966    0.53291    1.000
    N2292    N        0.34913    0.62387    0.51234    1.000
    N2293    N        0.37724    0.51522    0.56867    1.000
    Si2294   Si       0.34407    0.59609    0.54661    1.000
    N2295    N        0.36478    0.54586    0.49688    1.000
    N2296    N        0.37739    0.67762    0.60429    1.000
    Si2297   Si       0.37381    0.72037    0.52277    1.000
    N2298    N        0.35128    0.68615    0.53917    1.000
    N2299    N        0.34928    0.74572    0.60439    1.000
    Si2300   Si       0.34653    0.66625    0.57912    1.000
    Si2301   Si       0.37765    0.71760    0.61956    1.000
    N2302    N        0.36177    0.75718    0.53909    1.000
    N2303    N        0.35300    0.57939    0.69324    1.000
    N2304    N        0.37562    0.61986    0.64646    1.000
    Si2305   Si       0.38906    0.60256    0.68411    1.000
    Si2306   Si       0.38381    0.65410    0.74045    1.000
    N2307    N        0.36254    0.72361    0.66115    1.000
    Si2308   Si       0.40115    0.64626    0.62341    1.000
    Si2309   Si       0.37719    0.72172    0.70327    1.000
    N2310    N        0.36021    0.69085    0.72942    1.000
    N2311    N        0.35577    0.76071    0.72303    1.000
    N2312    N        0.37489    0.56842    0.81317    1.000
    Si2313   Si       0.37900    0.57965    0.76980    1.000
    N2314    N        0.35314    0.54689    0.75669    1.000
    N2315    N        0.36303    0.61902    0.75755    1.000
    N2316    N        0.37626    0.70322    0.81889    1.000
    Si2317   Si       0.39052    0.68335    0.85619    1.000
    N2318    N        0.39181    0.63885    0.85577    1.000
    Si2319   Si       0.34605    0.73391    0.81242    1.000
    N2320    N        0.36326    0.58066    0.87968    1.000
    Si2321   Si       0.37132    0.62220    0.89067    1.000
    Si2322   Si       0.38269    0.54351    0.89640    1.000
    N2323    N        0.35210    0.59788    0.95141    1.000
    Si2324   Si       0.39581    0.59452    0.94827    1.000
    N2325    N        0.35632    0.51062    0.90116    1.000
    N2326    N        0.40123    0.55440    0.93306    1.000
    Si2327   Si       0.37933    0.74761    0.89904    1.000
    N2328    N        0.39173    0.74774    0.94054    1.000
    N2329    N        0.37056    0.70491    0.88787    1.000
    N2330    N        0.34788    0.68023    0.95558    1.000
    Si2331   Si       0.34166    0.68598    0.91419    1.000
    Si2332   Si       0.36635    0.82512    0.01416    1.000
    N2333    N        0.38482    0.79721    0.04396    1.000
    N2334    N        0.36129    0.86777    0.00298    1.000
    Si2335   Si       0.37707    0.86246    0.11757    1.000
    N2336    N        0.39863    0.82607    0.10701    1.000
    Si2337   Si       0.36490    0.98006    0.00333    1.000
    N2338    N        0.37462    0.98514    0.04488    1.000
    Si2339   Si       0.36301    0.90746    0.02140    1.000
    N2340    N        0.39845    0.91742    0.04656    1.000
    Si2341   Si       0.34293    0.99137    0.07382    1.000
    Si2342   Si       0.36454    0.77531    0.16240    1.000
    N2343    N        0.39812    0.80150    0.17130    1.000
    N2344    N        0.34907    0.84772    0.14850    1.000
    N2345    N        0.37614    0.84966    0.20984    1.000
    Si2346   Si       0.34582    0.94808    0.14223    1.000
    Si2347   Si       0.39477    0.98352    0.18388    1.000
    N2348    N        0.36840    0.96751    0.21550    1.000
    N2349    N        0.38881    0.95183    0.15080    1.000
    Si2350   Si       0.38257    0.86849    0.32063    1.000
    N2351    N        0.39060    0.85043    0.28064    1.000
    N2352    N        0.38388    0.77111    0.36315    1.000
    Si2353   Si       0.37046    0.87232    0.24877    1.000
    N2354    N        0.38763    0.91038    0.33099    1.000
    N2355    N        0.39282    0.96997    0.28350    1.000
    Si2356   Si       0.37036    0.94556    0.25648    1.000
    Si2357   Si       0.36596    0.92076    0.36789    1.000
    Si2358   Si       0.39888    0.99505    0.35937    1.000
    N2359    N        0.39414    0.90952    0.25298    1.000
    Si2360   Si       0.37739    0.01102    0.28779    1.000
    N2361    N        0.39293    0.82691    0.41508    1.000
    N2362    N        0.35239    0.85026    0.46553    1.000
    Si2363   Si       0.38900    0.82938    0.45729    1.000
    N2364    N        0.39728    0.79340    0.48376    1.000
    Si2365   Si       0.37705    0.76270    0.45703    1.000
    N2366    N        0.34304    0.78221    0.43745    1.000
    Si2367   Si       0.36899    0.95056    0.47291    1.000
    Si2368   Si       0.35138    0.88427    0.43560    1.000
    N2369    N        0.37820    0.90877    0.46422    1.000
    N2370    N        0.36779    0.97788    0.43965    1.000
    N2371    N        0.37736    0.89344    0.39941    1.000
    N2372    N        0.36795    0.96388    0.37264    1.000
    Si2373   Si       0.34229    0.98004    0.40482    1.000
    Si2374   Si       0.36733    0.79661    0.51932    1.000
    N2375    N        0.37581    0.86226    0.60736    1.000
    Si2376   Si       0.37510    0.82298    0.58612    1.000
    N2377    N        0.38786    0.82430    0.54589    1.000
    N2378    N        0.35123    0.91369    0.57268    1.000
    Si2379   Si       0.39334    0.91293    0.56202    1.000
    N2380    N        0.35924    0.00765    0.52505    1.000
    Si2381   Si       0.39581    0.98583    0.53600    1.000
    N2382    N        0.35318    0.79203    0.66314    1.000
    N2383    N        0.38388    0.85614    0.67058    1.000
    Si2384   Si       0.38982    0.81495    0.65661    1.000
    N2385    N        0.36795    0.88075    0.73377    1.000
    Si2386   Si       0.34194    0.86286    0.68360    1.000
    Si2387   Si       0.36825    0.98988    0.63712    1.000
    Si2388   Si       0.40155    0.89387    0.70711    1.000
    N2389    N        0.36212    0.96310    0.67124    1.000
    N2390    N        0.40155    0.93909    0.72075    1.000
    N2391    N        0.35692    0.83787    0.78754    1.000
    N2392    N        0.36233    0.77053    0.79715    1.000
    Si2393   Si       0.38964    0.85096    0.80926    1.000
    Si2394   Si       0.38224    0.76927    0.75698    1.000
    N2395    N        0.40300    0.83261    0.84745    1.000
    N2396    N        0.38206    0.89345    0.81887    1.000
    Si2397   Si       0.34815    0.99573    0.82634    1.000
    N2398    N        0.38865    0.98573    0.81294    1.000
    Si2399   Si       0.39146    0.94104    0.81883    1.000
    N2400    N        0.34445    0.94167    0.81127    1.000
    N2401    N        0.40033    0.94436    0.86317    1.000
    N2402    N        0.39294    0.82819    0.91587    1.000
    N2403    N        0.37939    0.80160    0.97863    1.000
    Si2404   Si       0.35162    0.82122    0.91520    1.000
    N2405    N        0.34774    0.78136    0.89687    1.000
    Si2406   Si       0.36582    0.76151    0.97015    1.000
    Si2407   Si       0.37055    0.92913    0.95361    1.000
    N2408    N        0.36819    0.95879    0.92347    1.000
    N2409    N        0.35696    0.93972    0.99315    1.000
    Si2410   Si       0.36162    0.95287    0.88168    1.000
    N2411    N        0.40129    0.99179    0.98175    1.000
    Si2412   Si       0.43038    0.06743    0.07450    1.000
    N2413    N        0.42858    0.03620    0.10402    1.000
    N2414    N        0.44787    0.05151    0.03679    1.000
    N2415    N        0.41503    0.12808    0.03217    1.000
    Si2416   Si       0.45232    0.13407    0.00872    1.000
    Si2417   Si       0.41246    0.15732    0.06600    1.000
    N2418    N        0.42927    0.22830    0.10840    1.000
    N2419    N        0.44659    0.16277    0.09267    1.000
    Si2420   Si       0.41901    0.19520    0.00778    1.000
    N2421    N        0.40616    0.19787    0.04869    1.000
    N2422    N        0.45884    0.17709    0.00356    1.000
    Si2423   Si       0.44452    0.04066    0.20276    1.000
    N2424    N        0.44260    0.06339    0.16541    1.000
    N2425    N        0.43475    0.07163    0.22930    1.000
    Si2426   Si       0.44998    0.11361    0.23691    1.000
    Si2427   Si       0.40877    0.05353    0.14189    1.000
    N2428    N        0.44590    0.19887    0.16621    1.000
    Si2429   Si       0.43280    0.24972    0.21907    1.000
    Si2430   Si       0.41897    0.22802    0.15124    1.000
    Si2431   Si       0.43858    0.15545    0.17315    1.000
    N2432    N        0.43971    0.15009    0.21655    1.000
    Si2433   Si       0.45403    0.17978    0.24813    1.000
    N2434    N        0.43822    0.05040    0.29432    1.000
    N2435    N        0.42282    0.11326    0.27300    1.000
    N2436    N        0.41460    0.10011    0.34162    1.000
    Si2437   Si       0.45103    0.07692    0.32814    1.000
    Si2438   Si       0.40853    0.07119    0.26574    1.000
    N2439    N        0.45906    0.05472    0.36355    1.000
    Si2440   Si       0.43095    0.21624    0.31149    1.000
    N2441    N        0.42462    0.19236    0.27614    1.000
    N2442    N        0.40950    0.20828    0.34845    1.000
    N2443    N        0.40288    0.24833    0.29510    1.000
    Si2444   Si       0.42154    0.12077    0.37904    1.000
    N2445    N        0.41207    0.08796    0.40895    1.000
    Si2446   Si       0.43026    0.05201    0.39636    1.000
    N2447    N        0.40418    0.01843    0.39468    1.000
    Si2448   Si       0.41060    0.23979    0.37555    1.000
    N2449    N        0.43202    0.16475    0.44473    1.000
    N2450    N        0.40938    0.22409    0.41534    1.000
    Si2451   Si       0.43732    0.13608    0.47699    1.000
    N2452    N        0.44693    0.07250    0.57259    1.000
    Si2453   Si       0.41026    0.05656    0.55532    1.000
    Si2454   Si       0.43395    0.05898    0.61491    1.000
    N2455    N        0.42459    0.01792    0.53674    1.000
    N2456    N        0.43282    0.16297    0.59943    1.000
    N2457    N        0.41831    0.20213    0.53994    1.000
    N2458    N        0.45906    0.15229    0.50897    1.000
    Si2459   Si       0.45720    0.19224    0.52357    1.000
    Si2460   Si       0.40458    0.17171    0.56784    1.000
    N2461    N        0.43012    0.09335    0.64064    1.000
    N2462    N        0.43118    0.09559    0.71992    1.000
    Si2463   Si       0.41145    0.09957    0.68177    1.000
    Si2464   Si       0.43696    0.00743    0.71451    1.000
    N2465    N        0.46087    0.02982    0.63102    1.000
    N2466    N        0.42018    0.14218    0.67448    1.000
    Si2467   Si       0.43631    0.17513    0.69371    1.000
    Si2468   Si       0.41775    0.13566    0.63116    1.000
    N2469    N        0.42174    0.16707    0.73597    1.000
    N2470    N        0.41553    0.21013    0.68063    1.000
    N2471    N        0.42896    0.11453    0.79007    1.000
    N2472    N        0.41475    0.05019    0.80295    1.000
    Si2473   Si       0.44735    0.07725    0.80201    1.000
    N2474    N        0.45871    0.07586    0.84386    1.000
    Si2475   Si       0.41676    0.12397    0.74741    1.000
    Si2476   Si       0.41054    0.18833    0.84322    1.000
    Si2477   Si       0.41303    0.19331    0.76936    1.000
    N2478    N        0.44370    0.21743    0.83966    1.000
    N2479    N        0.45335    0.20924    0.77355    1.000
    Si2480   Si       0.45977    0.23674    0.80454    1.000
    Si2481   Si       0.43917    0.06248    0.99681    1.000
    N2482    N        0.43742    0.04151    0.95713    1.000
    N2483    N        0.44727    0.10233    0.98002    1.000
    Si2484   Si       0.44610    0.05758    0.88063    1.000
    Si2485   Si       0.44435    0.10298    0.93874    1.000
    N2486    N        0.45481    0.01602    0.89336    1.000
    N2487    N        0.41804    0.15971    0.87375    1.000
    N2488    N        0.41835    0.25688    0.89536    1.000
    Si2489   Si       0.45809    0.16242    0.89385    1.000
    N2490    N        0.42507    0.23611    0.99525    1.000
    Si2491   Si       0.45068    0.23236    0.87953    1.000
    N2492    N        0.44194    0.14562    0.92931    1.000
    N2493    N        0.42144    0.33541    0.06947    1.000
    Si2494   Si       0.43978    0.37439    0.05863    1.000
    Si2495   Si       0.43661    0.29874    0.05037    1.000
    N2496    N        0.44622    0.29718    0.00796    1.000
    N2497    N        0.45516    0.36383    0.02077    1.000
    N2498    N        0.40338    0.26839    0.05377    1.000
    Si2499   Si       0.42454    0.45143    0.05166    1.000
    N2500    N        0.44702    0.46469    0.01575    1.000
    N2501    N        0.45398    0.46128    0.08361    1.000
    N2502    N        0.41424    0.40991    0.05819    1.000
    Si2503   Si       0.45518    0.42543    0.11109    1.000
    Si2504   Si       0.42071    0.36991    0.20991    1.000
    Si2505   Si       0.43373    0.30868    0.16996    1.000
    N2506    N        0.44463    0.33566    0.20246    1.000
    N2507    N        0.40851    0.33720    0.14774    1.000
    N2508    N        0.42617    0.26582    0.17837    1.000
    N2509    N        0.43916    0.28244    0.24567    1.000
    Si2510   Si       0.41870    0.50245    0.17018    1.000
    N2511    N        0.41391    0.42621    0.12470    1.000
    N2512    N        0.42300    0.40953    0.19302    1.000
    N2513    N        0.45502    0.48738    0.14996    1.000
    Si2514   Si       0.44156    0.43387    0.22416    1.000
    Si2515   Si       0.46001    0.51035    0.22417    1.000
    Si2516   Si       0.41992    0.28562    0.28461    1.000
    N2517    N        0.45287    0.29036    0.31176    1.000
    Si2518   Si       0.44391    0.30489    0.35320    1.000
    N2519    N        0.41418    0.37725    0.25333    1.000
    Si2520   Si       0.45540    0.37722    0.26787    1.000
    N2521    N        0.40219    0.31580    0.35348    1.000
    Si2522   Si       0.41843    0.45949    0.32005    1.000
    N2523    N        0.42855    0.47661    0.35703    1.000
    N2524    N        0.45750    0.45826    0.30101    1.000
    N2525    N        0.40708    0.44555    0.24733    1.000
    N2526    N        0.43056    0.38744    0.37240    1.000
    N2527    N        0.44568    0.26839    0.37691    1.000
    Si2528   Si       0.42419    0.37319    0.41245    1.000
    N2529    N        0.43691    0.33413    0.41470    1.000
    N2530    N        0.43995    0.27656    0.45761    1.000
    Si2531   Si       0.46180    0.37836    0.47914    1.000
    Si2532   Si       0.46231    0.30925    0.44052    1.000
    Si2533   Si       0.46051    0.26003    0.49159    1.000
    N2534    N        0.44714    0.46571    0.48102    1.000
    Si2535   Si       0.44854    0.44004    0.44616    1.000
    N2536    N        0.41040    0.44776    0.42595    1.000
    N2537    N        0.44350    0.39599    0.44421    1.000
    Si2538   Si       0.41711    0.49694    0.48142    1.000
    N2539    N        0.42273    0.33165    0.55872    1.000
    Si2540   Si       0.44070    0.37012    0.55051    1.000
    N2541    N        0.43209    0.27951    0.60150    1.000
    Si2542   Si       0.44363    0.29402    0.56071    1.000
    N2543    N        0.42891    0.37238    0.50762    1.000
    N2544    N        0.43516    0.26545    0.52852    1.000
    N2545    N        0.41015    0.46271    0.60285    1.000
    N2546    N        0.42539    0.40302    0.57238    1.000
    Si2547   Si       0.44362    0.43978    0.58514    1.000
    N2548    N        0.42177    0.33080    0.67390    1.000
    N2549    N        0.42300    0.37039    0.73020    1.000
    Si2550   Si       0.42108    0.28876    0.68923    1.000
    N2551    N        0.45549    0.30183    0.72485    1.000
    N2552    N        0.45753    0.26938    0.67182    1.000
    Si2553   Si       0.45901    0.35437    0.66523    1.000
    N2554    N        0.46441    0.39328    0.68173    1.000
    Si2555   Si       0.43314    0.47282    0.70682    1.000
    Si2556   Si       0.45589    0.40137    0.72662    1.000
    Si2557   Si       0.40867    0.48314    0.64070    1.000
    N2558    N        0.42829    0.43554    0.73316    1.000
    N2559    N        0.44930    0.37012    0.79342    1.000
    Si2560   Si       0.41258    0.36263    0.77210    1.000
    Si2561   Si       0.42913    0.29166    0.75709    1.000
    N2562    N        0.45560    0.27623    0.78734    1.000
    Si2563   Si       0.45050    0.38646    0.83423    1.000
    N2564    N        0.40976    0.39132    0.84966    1.000
    N2565    N        0.41331    0.45144    0.81718    1.000
    Si2566   Si       0.45731    0.45994    0.81873    1.000
    N2567    N        0.44118    0.32896    0.90564    1.000
    Si2568   Si       0.41688    0.36168    0.92490    1.000
    Si2569   Si       0.44840    0.28664    0.90703    1.000
    N2570    N        0.41569    0.34598    0.96634    1.000
    Si2571   Si       0.45097    0.33473    0.98887    1.000
    Si2572   Si       0.46023    0.26215    0.98635    1.000
    N2573    N        0.42359    0.45772    0.88524    1.000
    Si2574   Si       0.44384    0.43255    0.91229    1.000
    Si2575   Si       0.44044    0.49671    0.88130    1.000
    N2576    N        0.42796    0.43638    0.95400    1.000
    N2577    N        0.44638    0.38961    0.91054    1.000
    N2578    N        0.41998    0.59120    0.10508    1.000
    Si2579   Si       0.42382    0.54883    0.10481    1.000
    N2580    N        0.44816    0.57008    0.02852    1.000
    Si2581   Si       0.40545    0.56460    0.03625    1.000
    N2582    N        0.42305    0.63928    0.05160    1.000
    Si2583   Si       0.41808    0.71487    0.02081    1.000
    Si2584   Si       0.42966    0.74600    0.09063    1.000
    N2585    N        0.40348    0.73126    0.05890    1.000
    N2586    N        0.45819    0.69274    0.02970    1.000
    N2587    N        0.40649    0.61965    0.16619    1.000
    N2588    N        0.44456    0.59367    0.21586    1.000
    Si2589   Si       0.43847    0.60869    0.14030    1.000
    N2590    N        0.42089    0.52158    0.20924    1.000
    N2591    N        0.40426    0.53150    0.14181    1.000
    N2592    N        0.41273    0.75660    0.12814    1.000
    Si2593   Si       0.45743    0.70363    0.20002    1.000
    Si2594   Si       0.45713    0.68585    0.13204    1.000
    N2595    N        0.43683    0.74199    0.19739    1.000
    Si2596   Si       0.41028    0.73151    0.16394    1.000
    N2597    N        0.41873    0.69092    0.15300    1.000
    N2598    N        0.43040    0.68390    0.22449    1.000
    N2599    N        0.44013    0.54364    0.33509    1.000
    Si2600   Si       0.43773    0.58482    0.35108    1.000
    Si2601   Si       0.44299    0.54614    0.28980    1.000
    N2602    N        0.46118    0.51391    0.26709    1.000
    Si2603   Si       0.45685    0.51006    0.35867    1.000
    N2604    N        0.40620    0.60790    0.33142    1.000
    N2605    N        0.43741    0.63745    0.27051    1.000
    Si2606   Si       0.41711    0.64366    0.30836    1.000
    N2607    N        0.43799    0.66867    0.33847    1.000
    N2608    N        0.44441    0.73556    0.32847    1.000
    Si2609   Si       0.40749    0.67150    0.37251    1.000
    Si2610   Si       0.40574    0.65841    0.24679    1.000
    N2611    N        0.46328    0.75186    0.26158    1.000
    N2612    N        0.41213    0.52533    0.44694    1.000
    Si2613   Si       0.43996    0.54680    0.42081    1.000
    N2614    N        0.42415    0.57628    0.39227    1.000
    N2615    N        0.45117    0.63116    0.46593    1.000
    N2616    N        0.46240    0.75537    0.48831    1.000
    Si2617   Si       0.42071    0.65708    0.44887    1.000
    N2618    N        0.41514    0.64644    0.40634    1.000
    N2619    N        0.41316    0.71190    0.38386    1.000
    Si2620   Si       0.43244    0.72637    0.41968    1.000
    N2621    N        0.43472    0.70001    0.45395    1.000
    Si2622   Si       0.44481    0.71510    0.49444    1.000
    Si2623   Si       0.41566    0.58498    0.57946    1.000
    N2624    N        0.42611    0.52260    0.51572    1.000
    N2625    N        0.42538    0.62409    0.59467    1.000
    N2626    N        0.44889    0.56001    0.56651    1.000
    N2627    N        0.40220    0.56343    0.61634    1.000
    Si2628   Si       0.46358    0.54277    0.52884    1.000
    N2629    N        0.41795    0.71573    0.52969    1.000
    Si2630   Si       0.43690    0.72016    0.56874    1.000
    N2631    N        0.41952    0.73083    0.61256    1.000
    N2632    N        0.45489    0.75882    0.57227    1.000
    N2633    N        0.44147    0.51044    0.72753    1.000
    N2634    N        0.41911    0.57299    0.68493    1.000
    Si2635   Si       0.43233    0.55615    0.64680    1.000
    Si2636   Si       0.43956    0.55312    0.71792    1.000
    N2637    N        0.43656    0.51381    0.65250    1.000
    N2638    N        0.40315    0.63828    0.70447    1.000
    N2639    N        0.42818    0.66675    0.64978    1.000
    Si2640   Si       0.44053    0.65810    0.69353    1.000
    Si2641   Si       0.44142    0.71936    0.72666    1.000
    N2642    N        0.41797    0.71349    0.69161    1.000
    Si2643   Si       0.43364    0.71013    0.65027    1.000
    N2644    N        0.46069    0.68090    0.72417    1.000
    N2645    N        0.43811    0.58249    0.82178    1.000
    Si2646   Si       0.42924    0.62014    0.83895    1.000
    Si2647   Si       0.41243    0.54686    0.82748    1.000
    Si2648   Si       0.45175    0.58380    0.78117    1.000
    N2649    N        0.41191    0.52795    0.86585    1.000
    N2650    N        0.41972    0.57224    0.75390    1.000
    N2651    N        0.41723    0.51513    0.79828    1.000
    Si2652   Si       0.44964    0.51343    0.77013    1.000
    N2653    N        0.44322    0.71349    0.80901    1.000
    Si2654   Si       0.40657    0.70722    0.78780    1.000
    N2655    N        0.41355    0.66984    0.76674    1.000
    N2656    N        0.40865    0.73553    0.75322    1.000
    N2657    N        0.45029    0.65060    0.81805    1.000
    Si2658   Si       0.45589    0.65937    0.77232    1.000
    N2659    N        0.45443    0.61566    0.87619    1.000
    Si2660   Si       0.40610    0.52466    0.96714    1.000
    N2661    N        0.44777    0.52575    0.97572    1.000
    N2662    N        0.41412    0.60832    0.98511    1.000
    Si2663   Si       0.45416    0.59749    0.99186    1.000
    N2664    N        0.40358    0.62768    0.91853    1.000
    N2665    N        0.43339    0.68472    0.87545    1.000
    N2666    N        0.44111    0.73861    0.99376    1.000
    Si2667   Si       0.44313    0.72618    0.88570    1.000
    Si2668   Si       0.43446    0.75077    0.95299    1.000
    N2669    N        0.45634    0.72583    0.92600    1.000
    Si2670   Si       0.43879    0.64682    0.90313    1.000
    N2671    N        0.42396    0.85427    0.05095    1.000
    Si2672   Si       0.41565    0.81569    0.06709    1.000
    N2673    N        0.44825    0.78429    0.07793    1.000
    Si2674   Si       0.44652    0.85253    0.01100    1.000
    N2675    N        0.40547    0.89396    0.10994    1.000
    Si2676   Si       0.42369    0.89302    0.06965    1.000
    N2677    N        0.44161    0.96140    0.02086    1.000
    N2678    N        0.42597    0.96352    0.09206    1.000
    Si2679   Si       0.40883    0.95984    0.05210    1.000
    Si2680   Si       0.45099    0.99901    0.10066    1.000
    Si2681   Si       0.41975    0.79988    0.13469    1.000
    N2682    N        0.42775    0.80742    0.23255    1.000
    N2683    N        0.44136    0.85778    0.18301    1.000
    Si2684   Si       0.41373    0.83211    0.20096    1.000
    Si2685   Si       0.43026    0.76365    0.23728    1.000
    N2686    N        0.45640    0.92595    0.14196    1.000
    Si2687   Si       0.41771    0.93396    0.12443    1.000
    N2688    N        0.43055    0.99984    0.20383    1.000
    Si2689   Si       0.44376    0.82283    0.34351    1.000
    N2690    N        0.44034    0.80528    0.30463    1.000
    Si2691   Si       0.42900    0.83065    0.27103    1.000
    N2692    N        0.45319    0.86526    0.25609    1.000
    N2693    N        0.40704    0.84744    0.34927    1.000
    Si2694   Si       0.46092    0.76778    0.30151    1.000
    N2695    N        0.43010    0.96970    0.34373    1.000
    N2696    N        0.44954    0.92734    0.29444    1.000
    Si2697   Si       0.41353    0.94382    0.31351    1.000
    Si2698   Si       0.43709    0.90662    0.25850    1.000
    N2699    N        0.44572    0.79625    0.37788    1.000
    N2700    N        0.41997    0.85757    0.46757    1.000
    N2701    N        0.44677    0.86765    0.40297    1.000
    Si2702   Si       0.44396    0.79271    0.48138    1.000
    Si2703   Si       0.40721    0.86089    0.39219    1.000
    Si2704   Si       0.45660    0.85105    0.44225    1.000
    Si2705   Si       0.40348    0.79068    0.39576    1.000
    N2706    N        0.45942    0.80589    0.44352    1.000
    N2707    N        0.40773    0.76163    0.42719    1.000
    Si2708   Si       0.44224    0.96003    0.48156    1.000
    Si2709   Si       0.41276    0.89538    0.48552    1.000
    N2710    N        0.43911    0.98001    0.44367    1.000
    N2711    N        0.45179    0.91781    0.47767    1.000
    Si2712   Si       0.40048    0.00496    0.43772    1.000
    Si2713   Si       0.42415    0.84642    0.53563    1.000
    Si2714   Si       0.43182    0.77432    0.60708    1.000
    N2715    N        0.45499    0.82087    0.51389    1.000
    N2716    N        0.45370    0.85016    0.56776    1.000
    Si2717   Si       0.45922    0.87821    0.59976    1.000
    N2718    N        0.40083    0.80298    0.61569    1.000
    N2719    N        0.40840    0.88818    0.52895    1.000
    N2720    N        0.42348    0.90596    0.59980    1.000
    Si2721   Si       0.42517    0.95189    0.60203    1.000
    N2722    N        0.40247    0.96234    0.49807    1.000
    N2723    N        0.40434    0.95626    0.56502    1.000
    N2724    N        0.43805    0.87211    0.71542    1.000
    Si2725   Si       0.44059    0.78994    0.71912    1.000
    N2726    N        0.44765    0.85926    0.63993    1.000
    N2727    N        0.42665    0.80360    0.67981    1.000
    Si2728   Si       0.40625    0.87961    0.63491    1.000
    N2729    N        0.40856    0.80394    0.74481    1.000
    Si2730   Si       0.43243    0.84408    0.74835    1.000
    N2731    N        0.44707    0.97359    0.68424    1.000
    Si2732   Si       0.45191    0.99089    0.64488    1.000
    N2733    N        0.40973    0.91130    0.66555    1.000
    Si2734   Si       0.40637    0.95421    0.67817    1.000
    N2735    N        0.40980    0.97865    0.63353    1.000
    N2736    N        0.42920    0.85735    0.78863    1.000
    Si2737   Si       0.42561    0.79604    0.85758    1.000
    N2738    N        0.45459    0.78798    0.82837    1.000
    Si2739   Si       0.42752    0.95027    0.75088    1.000
    N2740    N        0.45358    0.89398    0.84391    1.000
    Si2741   Si       0.44165    0.89546    0.80118    1.000
    N2742    N        0.42501    0.93422    0.79071    1.000
    N2743    N        0.42864    0.99398    0.75581    1.000
    Si2744   Si       0.42349    0.00646    0.79754    1.000
    N2745    N        0.45934    0.99713    0.82286    1.000
    N2746    N        0.41431    0.75626    0.87490    1.000
    Si2747   Si       0.41966    0.84891    0.88755    1.000
    N2748    N        0.42780    0.85412    0.97257    1.000
    N2749    N        0.44678    0.79253    0.95196    1.000
    Si2750   Si       0.41210    0.81780    0.95421    1.000
    N2751    N        0.45711    0.82111    0.88122    1.000
    N2752    N        0.46245    0.94705    0.88563    1.000
    N2753    N        0.41384    0.92619    0.96279    1.000
    Si2754   Si       0.43374    0.96222    0.97814    1.000
    Si2755   Si       0.43542    0.91841    0.87307    1.000
    Si2756   Si       0.43033    0.88861    0.94632    1.000
    N2757    N        0.42267    0.88732    0.90218    1.000
    Si2758   Si       0.48591    0.03094    0.04780    1.000
    Si2759   Si       0.50355    0.10481    0.06429    1.000
    N2760    N        0.49011    0.12619    0.02872    1.000
    N2761    N        0.51195    0.06109    0.06124    1.000
    Si2762   Si       0.47060    0.13140    0.10804    1.000
    N2763    N        0.51220    0.13390    0.09569    1.000
    N2764    N        0.46175    0.09597    0.08726    1.000
    N2765    N        0.49316    0.00836    0.01079    1.000
    N2766    N        0.48048    0.22169    0.05743    1.000
    Si2767   Si       0.49085    0.20257    0.01823    1.000
    N2768    N        0.50501    0.19772    0.11603    1.000
    Si2769   Si       0.50444    0.25573    0.06607    1.000
    Si2770   Si       0.46453    0.20502    0.09353    1.000
    Si2771   Si       0.47668    0.09277    0.16700    1.000
    Si2772   Si       0.50665    0.06543    0.22470    1.000
    N2773    N        0.48872    0.10378    0.20924    1.000
    N2774    N        0.48884    0.03141    0.20505    1.000
    N2775    N        0.51249    0.07344    0.15287    1.000
    Si2776   Si       0.50293    0.00817    0.17174    1.000
    N2777    N        0.46629    0.13124    0.15012    1.000
    Si2778   Si       0.48240    0.20921    0.18964    1.000
    N2779    N        0.49834    0.24487    0.17160    1.000
    Si2780   Si       0.51085    0.14334    0.21985    1.000
    N2781    N        0.51127    0.17779    0.19615    1.000
    N2782    N        0.46088    0.21719    0.22735    1.000
    N2783    N        0.48880    0.09745    0.32428    1.000
    Si2784   Si       0.47394    0.03037    0.28385    1.000
    N2785    N        0.50131    0.06110    0.26760    1.000
    N2786    N        0.49697    0.01801    0.32107    1.000
    Si2787   Si       0.49470    0.02813    0.36291    1.000
    Si2788   Si       0.49317    0.13063    0.35347    1.000
    Si2789   Si       0.50324    0.20557    0.34149    1.000
    N2790    N        0.47200    0.22538    0.31860    1.000
    N2791    N        0.48622    0.14938    0.25694    1.000
    N2792    N        0.50068    0.16443    0.32744    1.000
    Si2793   Si       0.51747    0.15202    0.28694    1.000
    N2794    N        0.51832    0.25712    0.27819    1.000
    Si2795   Si       0.47574    0.07075    0.45476    1.000
    N2796    N        0.47609    0.05002    0.49171    1.000
    N2797    N        0.51461    0.07734    0.43579    1.000
    N2798    N        0.46321    0.13210    0.38316    1.000
    N2799    N        0.45860    0.04165    0.42685    1.000
    N2800    N        0.46419    0.11229    0.45324    1.000
    N2801    N        0.50257    0.17645    0.43761    1.000
    N2802    N        0.47062    0.21835    0.49257    1.000
    N2803    N        0.49865    0.21858    0.38264    1.000
    Si2804   Si       0.50564    0.20541    0.47045    1.000
    Si2805   Si       0.47021    0.14899    0.42648    1.000
    Si2806   Si       0.48857    0.07150    0.56966    1.000
    N2807    N        0.49710    0.03132    0.54942    1.000
    N2808    N        0.50999    0.09362    0.53711    1.000
    N2809    N        0.51150    0.07232    0.60493    1.000
    Si2810   Si       0.46451    0.01611    0.52071    1.000
    Si2811   Si       0.51128    0.05634    0.51535    1.000
    N2812    N        0.48401    0.19690    0.55706    1.000
    Si2813   Si       0.47004    0.18804    0.59663    1.000
    Si2814   Si       0.47011    0.07631    0.72525    1.000
    Si2815   Si       0.50600    0.03701    0.63067    1.000
    N2816    N        0.49922    0.10185    0.70432    1.000
    N2817    N        0.47161    0.03225    0.71564    1.000
    Si2818   Si       0.51169    0.01836    0.70862    1.000
    N2819    N        0.50586    0.17059    0.61702    1.000
    N2820    N        0.46940    0.21997    0.62594    1.000
    Si2821   Si       0.49619    0.19686    0.65259    1.000
    N2822    N        0.47896    0.17582    0.68727    1.000
    Si2823   Si       0.50352    0.14605    0.70871    1.000
    N2824    N        0.47815    0.07744    0.76917    1.000
    Si2825   Si       0.50154    0.11602    0.77581    1.000
    Si2826   Si       0.49087    0.10061    0.86011    1.000
    N2827    N        0.50780    0.11573    0.82056    1.000
    Si2828   Si       0.51411    0.05506    0.77740    1.000
    N2829    N        0.50190    0.24713    0.81344    1.000
    Si2830   Si       0.49192    0.19037    0.77266    1.000
    N2831    N        0.49488    0.15061    0.75201    1.000
    N2832    N        0.50575    0.18382    0.81285    1.000
    N2833    N        0.50176    0.03178    0.94373    1.000
    Si2834   Si       0.51048    0.06502    0.91745    1.000
    N2835    N        0.46872    0.08267    0.90915    1.000
    Si2836   Si       0.46256    0.01383    0.93653    1.000
    N2837    N        0.51884    0.06815    0.87273    1.000
    N2838    N        0.48808    0.14339    0.87145    1.000
    N2839    N        0.51361    0.15753    0.93661    1.000
    N2840    N        0.47374    0.20166    0.90046    1.000
    Si2841   Si       0.51441    0.19130    0.90929    1.000
    N2842    N        0.49745    0.23666    0.99194    1.000
    Si2843   Si       0.48890    0.30262    0.10609    1.000
    Si2844   Si       0.50771    0.37818    0.08155    1.000
    N2845    N        0.47428    0.28878    0.06844    1.000
    Si2846   Si       0.49260    0.37548    0.00364    1.000
    N2847    N        0.51295    0.33805    0.10134    1.000
    N2848    N        0.51420    0.26403    0.10773    1.000
    N2849    N        0.51788    0.37837    0.03866    1.000
    N2850    N        0.46787    0.38931    0.08813    1.000
    Si2851   Si       0.47059    0.49335    0.10986    1.000
    N2852    N        0.51115    0.47686    0.11365    1.000
    Si2853   Si       0.47153    0.49999    0.00358    1.000
    Si2854   Si       0.50078    0.28848    0.17516    1.000
    N2855    N        0.47183    0.30287    0.14626    1.000
    N2856    N        0.50071    0.29653    0.21840    1.000
    Si2857   Si       0.46511    0.31393    0.23441    1.000
    N2858    N        0.47159    0.40539    0.23836    1.000
    N2859    N        0.48315    0.42669    0.14246    1.000
    Si2860   Si       0.51252    0.40036    0.22746    1.000
    Si2861   Si       0.48147    0.46171    0.17117    1.000
    N2862    N        0.46300    0.46823    0.21089    1.000
    N2863    N        0.47881    0.34110    0.26423    1.000
    N2864    N        0.47339    0.33442    0.35585    1.000
    N2865    N        0.50739    0.27986    0.34936    1.000
    Si2866   Si       0.51521    0.32110    0.35329    1.000
    Si2867   Si       0.48995    0.26658    0.31135    1.000
    Si2868   Si       0.47070    0.38001    0.35614    1.000
    N2869    N        0.46700    0.38688    0.30858    1.000
    Si2870   Si       0.49006    0.48993    0.29220    1.000
    N2871    N        0.48408    0.42464    0.35499    1.000
    Si2872   Si       0.48477    0.42764    0.31249    1.000
    N2873    N        0.49418    0.50461    0.33405    1.000
    N2874    N        0.51983    0.44985    0.29924    1.000
    N2875    N        0.47386    0.33631    0.47412    1.000
    N2876    N        0.49942    0.28097    0.48637    1.000
    N2877    N        0.49526    0.29036    0.41876    1.000
    Si2878   Si       0.48870    0.26077    0.38520    1.000
    N2879    N        0.50588    0.38156    0.39258    1.000
    Si2880   Si       0.52306    0.27822    0.44876    1.000
    N2881    N        0.48778    0.44818    0.42788    1.000
    Si2882   Si       0.50070    0.42431    0.39400    1.000
    N2883    N        0.48545    0.30236    0.55056    1.000
    Si2884   Si       0.49733    0.31879    0.50757    1.000
    N2885    N        0.49908    0.28570    0.61404    1.000
    N2886    N        0.48381    0.37880    0.55784    1.000
    Si2887   Si       0.51720    0.28466    0.57466    1.000
    Si2888   Si       0.51160    0.38492    0.52473    1.000
    Si2889   Si       0.49033    0.39083    0.59966    1.000
    Si2890   Si       0.49807    0.48928    0.57051    1.000
    Si2891   Si       0.47576    0.45084    0.51164    1.000
    N2892    N        0.46917    0.45901    0.55523    1.000
    N2893    N        0.46896    0.42396    0.61682    1.000
    N2894    N        0.48527    0.40906    0.49947    1.000
    N2895    N        0.48603    0.50851    0.60673    1.000
    N2896    N        0.51903    0.47135    0.50710    1.000
    N2897    N        0.47768    0.35679    0.62365    1.000
    Si2898   Si       0.48541    0.29118    0.69776    1.000
    N2899    N        0.49378    0.32702    0.67540    1.000
    Si2900   Si       0.50749    0.32503    0.63470    1.000
    Si2901   Si       0.46361    0.26311    0.62845    1.000
    Si2902   Si       0.48086    0.42579    0.66049    1.000
    N2903    N        0.51167    0.50508    0.67404    1.000
    N2904    N        0.46503    0.46164    0.67756    1.000
    Si2905   Si       0.47594    0.49614    0.64792    1.000
    N2906    N        0.49324    0.39261    0.74660    1.000
    N2907    N        0.47618    0.35665    0.85336    1.000
    Si2908   Si       0.49627    0.28960    0.79714    1.000
    Si2909   Si       0.48944    0.36381    0.77876    1.000
    N2910    N        0.50391    0.32493    0.76912    1.000
    Si2911   Si       0.51101    0.28764    0.87156    1.000
    Si2912   Si       0.51748    0.34901    0.84003    1.000
    N2913    N        0.51789    0.30591    0.83088    1.000
    N2914    N        0.51942    0.37851    0.80837    1.000
    Si2915   Si       0.51242    0.47359    0.76477    1.000
    N2916    N        0.46904    0.49095    0.84816    1.000
    N2917    N        0.47079    0.47524    0.77919    1.000
    N2918    N        0.47338    0.42378    0.83241    1.000
    Si2919   Si       0.51715    0.41774    0.82640    1.000
    N2920    N        0.47438    0.26872    0.87642    1.000
    Si2921   Si       0.50095    0.31041    0.94566    1.000
    N2922    N        0.49143    0.34407    0.97171    1.000
    Si2923   Si       0.47441    0.35798    0.89671    1.000
    N2924    N        0.50871    0.31967    0.90335    1.000
    N2925    N        0.46714    0.28400    0.94845    1.000
    N2926    N        0.51199    0.38272    0.90867    1.000
    Si2927   Si       0.51773    0.42342    0.90552    1.000
    Si2928   Si       0.46103    0.44410    0.97960    1.000
    Si2929   Si       0.49776    0.48781    0.92714    1.000
    N2930    N        0.48973    0.41357    0.98537    1.000
    N2931    N        0.48353    0.44983    0.91296    1.000
    N2932    N        0.49273    0.47526    0.97119    1.000
    Si2933   Si       0.49182    0.55880    0.04047    1.000
    N2934    N        0.50457    0.57981    0.07376    1.000
    Si2935   Si       0.49305    0.56495    0.11430    1.000
    N2936    N        0.47744    0.63053    0.00568    1.000
    N2937    N        0.49784    0.51420    0.03434    1.000
    N2938    N        0.51587    0.57634    0.00702    1.000
    N2939    N        0.46441    0.53525    0.10062    1.000
    Si2940   Si       0.51974    0.61826    0.00433    1.000
    Si2941   Si       0.46412    0.65168    0.04252    1.000
    Si2942   Si       0.47926    0.72474    0.00826    1.000
    N2943    N        0.49036    0.75046    0.04032    1.000
    N2944    N        0.49693    0.64871    0.07024    1.000
    Si2945   Si       0.49376    0.73133    0.07931    1.000
    N2946    N        0.45798    0.71229    0.09831    1.000
    Si2947   Si       0.50168    0.62877    0.15739    1.000
    N2948    N        0.49281    0.53705    0.20677    1.000
    N2949    N        0.46755    0.57947    0.14960    1.000
    Si2950   Si       0.47654    0.57386    0.19090    1.000
    N2951    N        0.50830    0.60486    0.19325    1.000
    N2952    N        0.49578    0.69565    0.22236    1.000
    N2953    N        0.46526    0.64352    0.13938    1.000
    N2954    N        0.48243    0.70480    0.16283    1.000
    Si2955   Si       0.50047    0.59239    0.31245    1.000
    N2956    N        0.47508    0.60601    0.34453    1.000
    N2957    N        0.46946    0.57891    0.28477    1.000
    N2958    N        0.50239    0.62728    0.25325    1.000
    Si2959   Si       0.46336    0.60928    0.25271    1.000
    N2960    N        0.52360    0.63202    0.31482    1.000
    Si2961   Si       0.50174    0.63991    0.35292    1.000
    N2962    N        0.48789    0.69253    0.29054    1.000
    N2963    N        0.50280    0.68376    0.35301    1.000
    Si2964   Si       0.49084    0.72104    0.25925    1.000
    Si2965   Si       0.51315    0.65887    0.28201    1.000
    Si2966   Si       0.46743    0.69816    0.32927    1.000
    N2967    N        0.46617    0.51847    0.39968    1.000
    N2968    N        0.47636    0.56499    0.43959    1.000
    Si2969   Si       0.50260    0.53545    0.41865    1.000
    Si2970   Si       0.47841    0.59483    0.46980    1.000
    N2971    N        0.51489    0.62373    0.46483    1.000
    Si2972   Si       0.50687    0.71589    0.42236    1.000
    N2973    N        0.49531    0.67553    0.43343    1.000
    N2974    N        0.47333    0.74026    0.41071    1.000
    Si2975   Si       0.50592    0.75722    0.48786    1.000
    Si2976   Si       0.48314    0.65948    0.47250    1.000
    Si2977   Si       0.48118    0.55354    0.59928    1.000
    Si2978   Si       0.50425    0.59497    0.54033    1.000
    N2979    N        0.47829    0.57862    0.50868    1.000
    N2980    N        0.49732    0.52102    0.54167    1.000
    N2981    N        0.51290    0.57528    0.57804    1.000
    N2982    N        0.48458    0.63145    0.55244    1.000
    Si2983   Si       0.46259    0.64476    0.58823    1.000
    N2984    N        0.47722    0.68627    0.50510    1.000
    Si2985   Si       0.49416    0.67301    0.54352    1.000
    N2986    N        0.46325    0.68737    0.57350    1.000
    N2987    N        0.48686    0.64371    0.62343    1.000
    N2988    N        0.51981    0.74797    0.60116    1.000
    N2989    N        0.51985    0.74776    0.52787    1.000
    Si2990   Si       0.48741    0.60988    0.65283    1.000
    N2991    N        0.48234    0.56359    0.71344    1.000
    Si2992   Si       0.48653    0.60644    0.72331    1.000
    N2993    N        0.46973    0.57591    0.63395    1.000
    N2994    N        0.46760    0.62480    0.68856    1.000
    Si2995   Si       0.51331    0.53361    0.70745    1.000
    Si2996   Si       0.50385    0.67818    0.72198    1.000
    Si2997   Si       0.49433    0.75127    0.63653    1.000
    Si2998   Si       0.50795    0.68127    0.63720    1.000
    Si2999   Si       0.51076    0.75524    0.71393    1.000
    N3000    N        0.51643    0.67774    0.67872    1.000
    N3001    N        0.46554    0.75537    0.71952    1.000
    N3002    N        0.47608    0.71310    0.64057    1.000
    N3003    N        0.51805    0.75960    0.67137    1.000
    N3004    N        0.47564    0.54732    0.77980    1.000
    N3005    N        0.50723    0.61086    0.82601    1.000
    Si3006   Si       0.49245    0.59692    0.86557    1.000
    Si3007   Si       0.50432    0.51606    0.85038    1.000
    N3008    N        0.46642    0.61972    0.76020    1.000
    Si3009   Si       0.51684    0.54293    0.77618    1.000
    Si3010   Si       0.46436    0.68573    0.83818    1.000
    Si3011   Si       0.46924    0.74807    0.82148    1.000
    N3012    N        0.47788    0.72807    0.86059    1.000
    N3013    N        0.50260    0.67711    0.77888    1.000
    N3014    N        0.50507    0.74767    0.79821    1.000
    N3015    N        0.50627    0.67758    0.84395    1.000
    Si3016   Si       0.51901    0.65182    0.81098    1.000
    N3017    N        0.50192    0.55402    0.87058    1.000
    N3018    N        0.47040    0.58776    0.95107    1.000
    Si3019   Si       0.49755    0.62132    0.93516    1.000
    Si3020   Si       0.47095    0.54381    0.94509    1.000
    N3021    N        0.51581    0.53893    0.94564    1.000
    N3022    N        0.46454    0.51161    0.91534    1.000
    Si3023   Si       0.48862    0.69975    0.93416    1.000
    N3024    N        0.47257    0.65804    0.92778    1.000
    N3025    N        0.50119    0.70406    0.97628    1.000
    Si3026   Si       0.48147    0.79199    0.04551    1.000
    N3027    N        0.50671    0.81503    0.07255    1.000
    Si3028   Si       0.48622    0.79735    0.10735    1.000
    N3029    N        0.46740    0.81580    0.01386    1.000
    N3030    N        0.47628    0.88508    0.01109    1.000
    N3031    N        0.50592    0.75840    0.11232    1.000
    Si3032   Si       0.49758    0.90046    0.04470    1.000
    Si3033   Si       0.48215    0.97189    0.03124    1.000
    N3034    N        0.48356    0.99274    0.07064    1.000
    N3035    N        0.46800    0.89987    0.07584    1.000
    N3036    N        0.50851    0.93947    0.02767    1.000
    Si3037   Si       0.51117    0.97664    0.10104    1.000
    Si3038   Si       0.48146    0.90016    0.11572    1.000
    N3039    N        0.51269    0.93445    0.11577    1.000
    N3040    N        0.46216    0.81003    0.14036    1.000
    N3041    N        0.49750    0.82962    0.20279    1.000
    N3042    N        0.49783    0.86828    0.13881    1.000
    Si3043   Si       0.47653    0.84167    0.16560    1.000
    Si3044   Si       0.49178    0.85356    0.24201    1.000
    N3045    N        0.46120    0.93314    0.23321    1.000
    N3046    N        0.48446    0.99101    0.13290    1.000
    N3047    N        0.51353    0.91439    0.18031    1.000
    N3048    N        0.51809    0.88857    0.23982    1.000
    N3049    N        0.49321    0.96934    0.19155    1.000
    Si3050   Si       0.50350    0.92547    0.21947    1.000
    Si3051   Si       0.49209    0.94424    0.15568    1.000
    Si3052   Si       0.46183    0.97680    0.22258    1.000
    N3053    N        0.47576    0.85249    0.34075    1.000
    N3054    N        0.51053    0.83046    0.27506    1.000
    Si3055   Si       0.51091    0.84875    0.31627    1.000
    N3056    N        0.49933    0.76970    0.31805    1.000
    Si3057   Si       0.48250    0.95322    0.27897    1.000
    N3058    N        0.50290    0.95712    0.31948    1.000
    Si3059   Si       0.47219    0.96090    0.35370    1.000
    N3060    N        0.47013    0.99238    0.26296    1.000
    N3061    N        0.48141    0.91845    0.36471    1.000
    Si3062   Si       0.47587    0.78650    0.40775    1.000
    N3063    N        0.49148    0.86621    0.46219    1.000
    N3064    N        0.51327    0.80430    0.39677    1.000
    Si3065   Si       0.47896    0.87794    0.37708    1.000
    Si3066   Si       0.51829    0.83949    0.48248    1.000
    N3067    N        0.51863    0.79687    0.48050    1.000
    Si3068   Si       0.47187    0.99931    0.42473    1.000
    N3069    N        0.51024    0.00213    0.44515    1.000
    N3070    N        0.51819    0.92929    0.43982    1.000
    Si3071   Si       0.49430    0.90806    0.47042    1.000
    N3072    N        0.48057    0.99145    0.38343    1.000
    Si3073   Si       0.48590    0.83077    0.54214    1.000
    N3074    N        0.50979    0.80281    0.56609    1.000
    Si3075   Si       0.49970    0.76104    0.56448    1.000
    N3076    N        0.47269    0.97702    0.50637    1.000
    N3077    N        0.49380    0.89944    0.59172    1.000
    Si3078   Si       0.50168    0.94190    0.59843    1.000
    Si3079   Si       0.50974    0.95935    0.52064    1.000
    N3080    N        0.51444    0.91879    0.50653    1.000
    N3081    N        0.46591    0.96263    0.61305    1.000
    N3082    N        0.51351    0.96528    0.56338    1.000
    N3083    N        0.48943    0.83647    0.68335    1.000
    Si3084   Si       0.50524    0.82559    0.72161    1.000
    N3085    N        0.46621    0.78404    0.63161    1.000
    N3086    N        0.46772    0.81840    0.74129    1.000
    Si3087   Si       0.46484    0.87366    0.68109    1.000
    Si3088   Si       0.46021    0.81911    0.65385    1.000
    N3089    N        0.49091    0.91081    0.67653    1.000
    Si3090   Si       0.48134    0.94850    0.69794    1.000
    N3091    N        0.46845    0.94203    0.73793    1.000
    N3092    N        0.51510    0.97559    0.69859    1.000
    Si3093   Si       0.48543    0.81103    0.84994    1.000
    N3094    N        0.50422    0.84498    0.83191    1.000
    Si3095   Si       0.49666    0.88731    0.83200    1.000
    N3096    N        0.48706    0.90064    0.79185    1.000
    Si3097   Si       0.50188    0.99317    0.81660    1.000
    Si3098   Si       0.49808    0.93359    0.76712    1.000
    N3099    N        0.51014    0.98083    0.85921    1.000
    Si3100   Si       0.46464    0.98462    0.86496    1.000
    N3101    N        0.51480    0.96876    0.78476    1.000
    N3102    N        0.50321    0.84329    0.96079    1.000
    Si3103   Si       0.48092    0.80583    0.97389    1.000
    N3104    N        0.51243    0.77708    0.97517    1.000
    N3105    N        0.46429    0.97314    0.95111    1.000
    N3106    N        0.47111    0.90383    0.94394    1.000
    Si3107   Si       0.48204    0.94201    0.92417    1.000
    Si3108   Si       0.49653    0.88485    0.97361    1.000
    N3109    N        0.54793    0.10958    0.04371    1.000
    Si3110   Si       0.55162    0.06641    0.03663    1.000
    Si3111   Si       0.53025    0.13925    0.01610    1.000
    N3112    N        0.54684    0.25208    0.05315    1.000
    Si3113   Si       0.55635    0.21593    0.02788    1.000
    Si3114   Si       0.53667    0.16564    0.11239    1.000
    N3115    N        0.52921    0.18236    0.02579    1.000
    N3116    N        0.57254    0.16425    0.08867    1.000
    N3117    N        0.54765    0.06828    0.21333    1.000
    Si3118   Si       0.54812    0.06001    0.17013    1.000
    N3119    N        0.54471    0.01602    0.16218    1.000
    Si3120   Si       0.57379    0.10211    0.20983    1.000
    N3121    N        0.57578    0.09253    0.16416    1.000
    N3122    N        0.55351    0.13663    0.22569    1.000
    Si3123   Si       0.55232    0.18526    0.18161    1.000
    N3124    N        0.55472    0.15145    0.15018    1.000
    N3125    N        0.55742    0.21898    0.15430    1.000
    Si3126   Si       0.52131    0.23309    0.13653    1.000
    Si3127   Si       0.57514    0.16724    0.24659    1.000
    N3128    N        0.54508    0.12032    0.29432    1.000
    N3129    N        0.55339    0.05286    0.31122    1.000
    Si3130   Si       0.56578    0.03647    0.35105    1.000
    Si3131   Si       0.52275    0.08173    0.30081    1.000
    Si3132   Si       0.54317    0.22282    0.28948    1.000
    N3133    N        0.54229    0.18454    0.27132    1.000
    N3134    N        0.54629    0.21527    0.33227    1.000
    N3135    N        0.53087    0.04896    0.37489    1.000
    N3136    N        0.52960    0.11727    0.37233    1.000
    N3137    N        0.54325    0.04789    0.48835    1.000
    Si3138   Si       0.53242    0.03941    0.44757    1.000
    Si3139   Si       0.53696    0.08392    0.40017    1.000
    N3140    N        0.57045    0.03968    0.42930    1.000
    Si3141   Si       0.56938    0.17802    0.48965    1.000
    N3142    N        0.55654    0.17486    0.39290    1.000
    N3143    N        0.57761    0.23558    0.39821    1.000
    Si3144   Si       0.57254    0.24200    0.44103    1.000
    Si3145   Si       0.57033    0.13565    0.37974    1.000
    Si3146   Si       0.52873    0.20194    0.41233    1.000
    N3147    N        0.52814    0.23543    0.44386    1.000
    Si3148   Si       0.55004    0.11231    0.53870    1.000
    Si3149   Si       0.54932    0.09423    0.60946    1.000
    N3150    N        0.54855    0.12604    0.58058    1.000
    N3151    N        0.56960    0.01543    0.54960    1.000
    N3152    N        0.57998    0.08154    0.52966    1.000
    N3153    N        0.56405    0.13639    0.50401    1.000
    N3154    N        0.55951    0.18732    0.56350    1.000
    Si3155   Si       0.54639    0.16507    0.59878    1.000
    N3156    N        0.53255    0.24770    0.55489    1.000
    Si3157   Si       0.52505    0.20719    0.54399    1.000
    N3158    N        0.53221    0.19733    0.50187    1.000
    Si3159   Si       0.53314    0.08248    0.68468    1.000
    N3160    N        0.54604    0.10730    0.65041    1.000
    N3161    N        0.56907    0.08157    0.70869    1.000
    N3162    N        0.53213    0.03786    0.74403    1.000
    N3163    N        0.52208    0.04317    0.67056    1.000
    Si3164   Si       0.56459    0.06496    0.74718    1.000
    N3165    N        0.57632    0.16554    0.62881    1.000
    N3166    N        0.52215    0.22573    0.67171    1.000
    Si3167   Si       0.55099    0.25745    0.68276    1.000
    N3168    N        0.57260    0.22547    0.70231    1.000
    N3169    N        0.54150    0.16309    0.69616    1.000
    Si3170   Si       0.53522    0.20459    0.70696    1.000
    Si3171   Si       0.56533    0.14344    0.66578    1.000
    N3172    N        0.53851    0.09223    0.77214    1.000
    Si3173   Si       0.55065    0.10593    0.81354    1.000
    Si3174   Si       0.54471    0.04571    0.84740    1.000
    N3175    N        0.57206    0.07160    0.82648    1.000
    N3176    N        0.51794    0.03319    0.81400    1.000
    Si3177   Si       0.51867    0.15555    0.84220    1.000
    N3178    N        0.56390    0.14239    0.83366    1.000
    Si3179   Si       0.52883    0.21835    0.83676    1.000
    N3180    N        0.56235    0.22388    0.81314    1.000
    Si3181   Si       0.55382    0.23504    0.77040    1.000
    N3182    N        0.52499    0.21206    0.74980    1.000
    N3183    N        0.53696    0.18795    0.86908    1.000
    N3184    N        0.54343    0.25810    0.86387    1.000
    Si3185   Si       0.57077    0.06572    0.96474    1.000
    N3186    N        0.54161    0.08720    0.93573    1.000
    N3187    N        0.57061    0.02771    0.87604    1.000
    Si3188   Si       0.52182    0.02000    0.97907    1.000
    N3189    N        0.54255    0.05474    0.99623    1.000
    Si3190   Si       0.54626    0.13171    0.94107    1.000
    Si3191   Si       0.53218    0.24590    0.96537    1.000
    N3192    N        0.55926    0.13478    0.98283    1.000
    N3193    N        0.56557    0.23851    0.99135    1.000
    N3194    N        0.53676    0.22412    0.92759    1.000
    Si3195   Si       0.56683    0.23641    0.89642    1.000
    N3196    N        0.57615    0.14450    0.90856    1.000
    N3197    N        0.57944    0.30811    0.09986    1.000
    Si3198   Si       0.54446    0.41240    0.04687    1.000
    Si3199   Si       0.53531    0.49028    0.03520    1.000
    N3200    N        0.53820    0.40908    0.09261    1.000
    N3201    N        0.53418    0.44783    0.02368    1.000
    N3202    N        0.55976    0.49580    0.06970    1.000
    Si3203   Si       0.57512    0.40198    0.11809    1.000
    Si3204   Si       0.54421    0.50599    0.10974    1.000
    Si3205   Si       0.54880    0.32668    0.12341    1.000
    N3206    N        0.53699    0.30288    0.15839    1.000
    Si3207   Si       0.56384    0.36619    0.18338    1.000
    N3208    N        0.56729    0.36314    0.13966    1.000
    N3209    N        0.56183    0.26461    0.21958    1.000
    Si3210   Si       0.56981    0.28914    0.18307    1.000
    Si3211   Si       0.53222    0.28172    0.24630    1.000
    Si3212   Si       0.56137    0.49684    0.17798    1.000
    N3213    N        0.53902    0.43535    0.23388    1.000
    N3214    N        0.52569    0.39272    0.18889    1.000
    Si3215   Si       0.55449    0.43301    0.19178    1.000
    N3216    N        0.52339    0.47159    0.17971    1.000
    Si3217   Si       0.52280    0.43616    0.12696    1.000
    N3218    N        0.56428    0.43199    0.14726    1.000
    N3219    N        0.53048    0.34948    0.32095    1.000
    Si3220   Si       0.56880    0.37363    0.32425    1.000
    N3221    N        0.55326    0.31216    0.26925    1.000
    N3222    N        0.53704    0.37241    0.25163    1.000
    Si3223   Si       0.52085    0.34246    0.27734    1.000
    N3224    N        0.56783    0.39169    0.36371    1.000
    Si3225   Si       0.54513    0.46414    0.26550    1.000
    N3226    N        0.52395    0.50259    0.26304    1.000
    N3227    N        0.54868    0.32467    0.38034    1.000
    N3228    N        0.56347    0.29213    0.44243    1.000
    Si3229   Si       0.54651    0.36785    0.39181    1.000
    N3230    N        0.56863    0.36763    0.42966    1.000
    Si3231   Si       0.58265    0.32496    0.42003    1.000
    Si3232   Si       0.57718    0.43195    0.37688    1.000
    N3233    N        0.53029    0.50605    0.43680    1.000
    N3234    N        0.54964    0.43093    0.45799    1.000
    N3235    N        0.53798    0.44660    0.39214    1.000
    Si3236   Si       0.52969    0.46238    0.43171    1.000
    N3237    N        0.55864    0.30423    0.56736    1.000
    Si3238   Si       0.56562    0.32937    0.52914    1.000
    N3239    N        0.52815    0.34603    0.51820    1.000
    Si3240   Si       0.57138    0.26593    0.54658    1.000
    N3241    N        0.57367    0.28952    0.50980    1.000
    Si3242   Si       0.57514    0.33041    0.59751    1.000
    N3243    N        0.58115    0.36136    0.56868    1.000
    Si3244   Si       0.54873    0.43985    0.50142    1.000
    Si3245   Si       0.55976    0.39962    0.57239    1.000
    N3246    N        0.53293    0.40032    0.60521    1.000
    N3247    N        0.54092    0.48503    0.56850    1.000
    N3248    N        0.54369    0.41141    0.53401    1.000
    Si3249   Si       0.57555    0.47737    0.59026    1.000
    N3250    N        0.56878    0.32358    0.73581    1.000
    N3251    N        0.54865    0.33405    0.63309    1.000
    N3252    N        0.52346    0.27630    0.71171    1.000
    N3253    N        0.57170    0.48370    0.69537    1.000
    N3254    N        0.56906    0.47899    0.63504    1.000
    N3255    N        0.52666    0.44974    0.73056    1.000
    Si3256   Si       0.57169    0.49611    0.73827    1.000
    Si3257   Si       0.53164    0.46660    0.69031    1.000
    Si3258   Si       0.55616    0.43104    0.63069    1.000
    N3259    N        0.52194    0.43738    0.66021    1.000
    N3260    N        0.54351    0.27533    0.77859    1.000
    N3261    N        0.55395    0.35390    0.86297    1.000
    Si3262   Si       0.55435    0.27657    0.82418    1.000
    Si3263   Si       0.53432    0.30345    0.74657    1.000
    N3264    N        0.58126    0.48102    0.83967    1.000
    N3265    N        0.53400    0.43557    0.86551    1.000
    N3266    N        0.52850    0.44227    0.79267    1.000
    Si3267   Si       0.57002    0.45539    0.80688    1.000
    Si3268   Si       0.53240    0.41310    0.75708    1.000
    N3269    N        0.57071    0.38980    0.74993    1.000
    Si3270   Si       0.54121    0.35071    0.90402    1.000
    Si3271   Si       0.57618    0.29649    0.94521    1.000
    N3272    N        0.57282    0.33601    0.92928    1.000
    N3273    N        0.53554    0.28885    0.95827    1.000
    Si3274   Si       0.52259    0.44316    0.98069    1.000
    N3275    N        0.52722    0.49777    0.89209    1.000
    N3276    N        0.53900    0.43655    0.94114    1.000
    Si3277   Si       0.55918    0.47134    0.87459    1.000
    Si3278   Si       0.52379    0.61806    0.08415    1.000
    N3279    N        0.55521    0.50936    0.00037    1.000
    N3280    N        0.55886    0.64269    0.08538    1.000
    Si3281   Si       0.53450    0.66951    0.06065    1.000
    N3282    N        0.53992    0.65403    0.02164    1.000
    Si3283   Si       0.56518    0.72598    0.09712    1.000
    N3284    N        0.53157    0.71063    0.07642    1.000
    N3285    N        0.52953    0.54389    0.12528    1.000
    Si3286   Si       0.55622    0.57711    0.13281    1.000
    N3287    N        0.56494    0.52343    0.21014    1.000
    Si3288   Si       0.53372    0.61051    0.22752    1.000
    Si3289   Si       0.52901    0.53325    0.23290    1.000
    N3290    N        0.52314    0.60555    0.12606    1.000
    N3291    N        0.57035    0.63458    0.21775    1.000
    N3292    N        0.56014    0.72264    0.14017    1.000
    Si3293   Si       0.56811    0.63466    0.17323    1.000
    N3294    N        0.56335    0.69959    0.20378    1.000
    Si3295   Si       0.57643    0.67317    0.23734    1.000
    Si3296   Si       0.55037    0.74825    0.22507    1.000
    N3297    N        0.52308    0.74664    0.19057    1.000
    Si3298   Si       0.53005    0.75518    0.14850    1.000
    N3299    N        0.53257    0.65985    0.16536    1.000
    Si3300   Si       0.52164    0.69937    0.18559    1.000
    Si3301   Si       0.56255    0.56867    0.28547    1.000
    N3302    N        0.53052    0.55975    0.31277    1.000
    Si3303   Si       0.53076    0.52826    0.34355    1.000
    N3304    N        0.57395    0.51933    0.35633    1.000
    N3305    N        0.54560    0.57225    0.24536    1.000
    N3306    N        0.52792    0.74141    0.26497    1.000
    N3307    N        0.55678    0.66805    0.27619    1.000
    Si3308   Si       0.54274    0.69837    0.35946    1.000
    N3309    N        0.55963    0.72825    0.33054    1.000
    N3310    N        0.56845    0.66271    0.35487    1.000
    Si3311   Si       0.56841    0.64364    0.31110    1.000
    Si3312   Si       0.53628    0.75473    0.30534    1.000
    Si3313   Si       0.56912    0.51823    0.45287    1.000
    Si3314   Si       0.55378    0.61928    0.48420    1.000
    Si3315   Si       0.56829    0.55145    0.38522    1.000
    N3316    N        0.52519    0.54822    0.38322    1.000
    Si3317   Si       0.56421    0.62749    0.38422    1.000
    N3318    N        0.52176    0.62418    0.38712    1.000
    N3319    N        0.55975    0.53024    0.49383    1.000
    N3320    N        0.57323    0.65582    0.49141    1.000
    N3321    N        0.54339    0.71813    0.39854    1.000
    N3322    N        0.56786    0.64513    0.42330    1.000
    N3323    N        0.52503    0.73648    0.45720    1.000
    Si3324   Si       0.56368    0.73750    0.43178    1.000
    Si3325   Si       0.52223    0.64224    0.42581    1.000
    Si3326   Si       0.55359    0.56512    0.58753    1.000
    N3327    N        0.54331    0.59863    0.52065    1.000
    N3328    N        0.56756    0.60779    0.59165    1.000
    N3329    N        0.56747    0.54365    0.55132    1.000
    Si3330   Si       0.53665    0.50805    0.52665    1.000
    Si3331   Si       0.57631    0.56713    0.51449    1.000
    Si3332   Si       0.55609    0.64994    0.58562    1.000
    N3333    N        0.53542    0.67065    0.55196    1.000
    Si3334   Si       0.56260    0.75283    0.52819    1.000
    Si3335   Si       0.57466    0.67374    0.53039    1.000
    N3336    N        0.54955    0.67291    0.61929    1.000
    Si3337   Si       0.56437    0.51629    0.66005    1.000
    N3338    N        0.52852    0.61027    0.66379    1.000
    N3339    N        0.55254    0.54812    0.62824    1.000
    Si3340   Si       0.55581    0.57863    0.65837    1.000
    N3341    N        0.55111    0.55246    0.69242    1.000
    Si3342   Si       0.57009    0.56715    0.72845    1.000
    N3343    N        0.57752    0.72648    0.65708    1.000
    N3344    N        0.52108    0.71921    0.73235    1.000
    Si3345   Si       0.54223    0.64153    0.68920    1.000
    N3346    N        0.52148    0.63620    0.72674    1.000
    N3347    N        0.53739    0.57730    0.75772    1.000
    Si3348   Si       0.54850    0.61998    0.75580    1.000
    N3349    N        0.52449    0.51726    0.81243    1.000
    N3350    N        0.52936    0.51378    0.74530    1.000
    N3351    N        0.57769    0.59578    0.84765    1.000
    N3352    N        0.55681    0.63970    0.79323    1.000
    N3353    N        0.55181    0.73333    0.85418    1.000
    N3354    N        0.56464    0.72860    0.79018    1.000
    Si3355   Si       0.52584    0.71518    0.77500    1.000
    Si3356   Si       0.51704    0.71212    0.86989    1.000
    Si3357   Si       0.53183    0.54011    0.90413    1.000
    Si3358   Si       0.53958    0.54838    0.98361    1.000
    N3359    N        0.56837    0.56083    0.90468    1.000
    Si3360   Si       0.56242    0.60115    0.88930    1.000
    N3361    N        0.52846    0.62937    0.96345    1.000
    N3362    N        0.57819    0.56843    0.97367    1.000
    N3363    N        0.51890    0.61234    0.89814    1.000
    Si3364   Si       0.56428    0.71432    0.93176    1.000
    N3365    N        0.52502    0.71196    0.91283    1.000
    N3366    N        0.56501    0.68081    0.95972    1.000
    N3367    N        0.57685    0.74766    0.96080    1.000
    Si3368   Si       0.57544    0.63942    0.95292    1.000
    Si3369   Si       0.52978    0.67509    0.98360    1.000
    Si3370   Si       0.54237    0.83841    0.06647    1.000
    N3371    N        0.56614    0.83760    0.10403    1.000
    N3372    N        0.53517    0.87957    0.05046    1.000
    N3373    N        0.57253    0.81562    0.04217    1.000
    N3374    N        0.57893    0.76841    0.09521    1.000
    N3375    N        0.55416    0.97776    0.09140    1.000
    Si3376   Si       0.56556    0.93670    0.11464    1.000
    Si3377   Si       0.54133    0.94354    0.99940    1.000
    Si3378   Si       0.57416    0.89936    0.04124    1.000
    N3379    N        0.57720    0.93950    0.02403    1.000
    Si3380   Si       0.57596    0.80206    0.12422    1.000
    N3381    N        0.55286    0.79255    0.22613    1.000
    N3382    N        0.54551    0.79458    0.15273    1.000
    Si3383   Si       0.53679    0.81191    0.19108    1.000
    N3384    N        0.55528    0.85023    0.18519    1.000
    N3385    N        0.56645    0.89919    0.13833    1.000
    Si3386   Si       0.53565    0.88117    0.16349    1.000
    N3387    N        0.54043    0.82898    0.33946    1.000
    Si3388   Si       0.54818    0.81390    0.26228    1.000
    N3389    N        0.56652    0.78595    0.29560    1.000
    N3390    N        0.57358    0.85279    0.25591    1.000
    Si3391   Si       0.54863    0.88827    0.27134    1.000
    N3392    N        0.52548    0.88862    0.30933    1.000
    N3393    N        0.55617    0.99334    0.28143    1.000
    Si3394   Si       0.55803    0.95924    0.25494    1.000
    N3395    N        0.56271    0.99491    0.34977    1.000
    Si3396   Si       0.53194    0.99018    0.31643    1.000
    N3397    N        0.55018    0.92920    0.36785    1.000
    N3398    N        0.57517    0.92251    0.27420    1.000
    Si3399   Si       0.51791    0.92025    0.33807    1.000
    N3400    N        0.51675    0.94921    0.25339    1.000
    N3401    N        0.55669    0.84045    0.46143    1.000
    Si3402   Si       0.53997    0.83498    0.38425    1.000
    Si3403   Si       0.55978    0.79812    0.46388    1.000
    N3404    N        0.52080    0.87280    0.38946    1.000
    N3405    N        0.57444    0.77839    0.42807    1.000
    N3406    N        0.54228    0.97484    0.49838    1.000
    Si3407   Si       0.54054    0.90847    0.40568    1.000
    N3408    N        0.57166    0.96930    0.43722    1.000
    Si3409   Si       0.53406    0.96729    0.45555    1.000
    Si3410   Si       0.54783    0.80460    0.58522    1.000
    N3411    N        0.55869    0.84681    0.58076    1.000
    N3412    N        0.57589    0.77732    0.56296    1.000
    Si3413   Si       0.53316    0.88106    0.59123    1.000
    N3414    N        0.51875    0.85550    0.52550    1.000
    Si3415   Si       0.54437    0.89117    0.52365    1.000
    N3416    N        0.55469    0.90690    0.56233    1.000
    Si3417   Si       0.52941    0.00642    0.56889    1.000
    N3418    N        0.53600    0.00926    0.61100    1.000
    Si3419   Si       0.56208    0.84109    0.64436    1.000
    N3420    N        0.55178    0.80119    0.62981    1.000
    N3421    N        0.53309    0.79302    0.72577    1.000
    N3422    N        0.53595    0.87579    0.63445    1.000
    N3423    N        0.56887    0.84241    0.68549    1.000
    Si3424   Si       0.57198    0.80936    0.71378    1.000
    Si3425   Si       0.55635    0.76392    0.65259    1.000
    N3426    N        0.52634    0.85775    0.73949    1.000
    N3427    N        0.57311    0.97685    0.73393    1.000
    N3428    N        0.53137    0.94608    0.63005    1.000
    Si3429   Si       0.53089    0.91152    0.65805    1.000
    Si3430   Si       0.55835    0.96371    0.69471    1.000
    N3431    N        0.56461    0.92176    0.68471    1.000
    Si3432   Si       0.56032    0.97771    0.62516    1.000
    N3433    N        0.57630    0.99027    0.66465    1.000
    N3434    N        0.56063    0.79826    0.80528    1.000
    N3435    N        0.55527    0.87361    0.79805    1.000
    Si3436   Si       0.54584    0.83707    0.81996    1.000
    N3437    N        0.56509    0.83474    0.86088    1.000
    Si3438   Si       0.54175    0.75908    0.82003    1.000
    Si3439   Si       0.55617    0.88226    0.75601    1.000
    N3440    N        0.52173    0.78633    0.85484    1.000
    N3441    N        0.53724    0.92226    0.75256    1.000
    N3442    N        0.52863    0.91682    0.84382    1.000
    Si3443   Si       0.56689    0.90920    0.82141    1.000
    Si3444   Si       0.55369    0.96018    0.76900    1.000
    Si3445   Si       0.53699    0.95111    0.87176    1.000
    Si3446   Si       0.55579    0.79678    0.87847    1.000
    N3447    N        0.54362    0.80196    0.91975    1.000
    Si3448   Si       0.55142    0.78296    0.95804    1.000
    Si3449   Si       0.54412    0.84009    0.94261    1.000
    N3450    N        0.56017    0.87357    0.91993    1.000
    N3451    N        0.56950    0.81938    0.97164    1.000
    N3452    N        0.52428    0.93646    0.91143    1.000
    Si3453   Si       0.55329    0.91554    0.93598    1.000
    N3454    N        0.53402    0.90800    0.97394    1.000
    N3455    N        0.54537    0.98275    0.98064    1.000
    Si3456   Si       0.61448    0.06415    0.10187    1.000
    N3457    N        0.59352    0.02706    0.11178    1.000
    N3458    N        0.59034    0.10132    0.09935    1.000
    Si3459   Si       0.62575    0.03411    0.03851    1.000
    N3460    N        0.61275    0.12818    0.03683    1.000
    N3461    N        0.58435    0.03902    0.04576    1.000
    Si3462   Si       0.58032    0.12814    0.06660    1.000
    Si3463   Si       0.60025    0.19678    0.08065    1.000
    N3464    N        0.59663    0.19819    0.03736    1.000
    N3465    N        0.59135    0.23604    0.09809    1.000
    Si3466   Si       0.62416    0.19045    0.00425    1.000
    N3467    N        0.61451    0.10323    0.22315    1.000
    Si3468   Si       0.58751    0.12423    0.13658    1.000
    N3469    N        0.61265    0.01668    0.17814    1.000
    Si3470   Si       0.61110    0.00884    0.22115    1.000
    N3471    N        0.59828    0.04028    0.24784    1.000
    N3472    N        0.62253    0.20648    0.15722    1.000
    Si3473   Si       0.62506    0.19966    0.19844    1.000
    Si3474   Si       0.58645    0.23459    0.23376    1.000
    Si3475   Si       0.59601    0.23595    0.14172    1.000
    N3476    N        0.62875    0.23457    0.22602    1.000
    N3477    N        0.58167    0.19417    0.21375    1.000
    N3478    N        0.62990    0.13705    0.14055    1.000
    N3479    N        0.61281    0.08944    0.29507    1.000
    N3480    N        0.61250    0.02501    0.30937    1.000
    Si3481   Si       0.62654    0.06252    0.32826    1.000
    Si3482   Si       0.62521    0.07389    0.25506    1.000
    Si3483   Si       0.58842    0.12665    0.30104    1.000
    N3484    N        0.60165    0.05872    0.36360    1.000
    Si3485   Si       0.57772    0.03085    0.28308    1.000
    Si3486   Si       0.61060    0.26001    0.29827    1.000
    N3487    N        0.58299    0.23557    0.27667    1.000
    N3488    N        0.59523    0.13536    0.34365    1.000
    N3489    N        0.60834    0.15619    0.27295    1.000
    N3490    N        0.61400    0.20593    0.35616    1.000
    Si3491   Si       0.62844    0.16384    0.35558    1.000
    Si3492   Si       0.58032    0.23341    0.35392    1.000
    N3493    N        0.62648    0.02114    0.41850    1.000
    Si3494   Si       0.60366    0.05980    0.40916    1.000
    N3495    N        0.61525    0.07711    0.47732    1.000
    Si3496   Si       0.61240    0.12510    0.42915    1.000
    N3497    N        0.60429    0.01065    0.48694    1.000
    N3498    N        0.57651    0.10315    0.41157    1.000
    Si3499   Si       0.58556    0.05230    0.49241    1.000
    Si3500   Si       0.62378    0.21214    0.46771    1.000
    N3501    N        0.62032    0.14055    0.46929    1.000
    N3502    N        0.60629    0.25209    0.46688    1.000
    N3503    N        0.61507    0.15630    0.39926    1.000
    N3504    N        0.58158    0.19794    0.45126    1.000
    Si3505   Si       0.59606    0.19634    0.40679    1.000
    N3506    N        0.63518    0.21570    0.42095    1.000
    Si3507   Si       0.59471    0.05084    0.55863    1.000
    N3508    N        0.58493    0.06896    0.59770    1.000
    Si3509   Si       0.60175    0.11151    0.50092    1.000
    Si3510   Si       0.62238    0.08094    0.61862    1.000
    N3511    N        0.63093    0.12323    0.60145    1.000
    N3512    N        0.62683    0.13040    0.53139    1.000
    Si3513   Si       0.62768    0.23158    0.59871    1.000
    Si3514   Si       0.59885    0.19908    0.55203    1.000
    N3515    N        0.60855    0.19355    0.50760    1.000
    N3516    N        0.60357    0.24207    0.56183    1.000
    N3517    N        0.62622    0.18908    0.58702    1.000
    Si3518   Si       0.62138    0.16144    0.62027    1.000
    N3519    N        0.61413    0.06417    0.65798    1.000
    Si3520   Si       0.60851    0.01920    0.66591    1.000
    Si3521   Si       0.60681    0.08839    0.69096    1.000
    N3522    N        0.62324    0.01854    0.70852    1.000
    N3523    N        0.60546    0.12992    0.67804    1.000
    Si3524   Si       0.63367    0.04651    0.73962    1.000
    N3525    N        0.61150    0.23468    0.63647    1.000
    Si3526   Si       0.60561    0.21156    0.72376    1.000
    N3527    N        0.62892    0.17526    0.72337    1.000
    Si3528   Si       0.61884    0.25745    0.67109    1.000
    N3529    N        0.60023    0.05406    0.76697    1.000
    Si3530   Si       0.61027    0.05950    0.80982    1.000
    N3531    N        0.62981    0.10041    0.81318    1.000
    N3532    N        0.60881    0.01476    0.82182    1.000
    Si3533   Si       0.60900    0.13786    0.82144    1.000
    N3534    N        0.61894    0.17495    0.79887    1.000
    Si3535   Si       0.60386    0.21548    0.80546    1.000
    N3536    N        0.59831    0.22896    0.76282    1.000
    N3537    N        0.61793    0.14530    0.86280    1.000
    N3538    N        0.61723    0.07847    0.90697    1.000
    N3539    N        0.57791    0.02860    0.94598    1.000
    Si3540   Si       0.59931    0.03987    0.90800    1.000
    Si3541   Si       0.61095    0.11967    0.89923    1.000
    N3542    N        0.60540    0.08676    0.97556    1.000
    Si3543   Si       0.60108    0.12768    0.99205    1.000
    N3544    N        0.62404    0.15824    0.97267    1.000
    N3545    N        0.63178    0.23061    0.99164    1.000
    N3546    N        0.59600    0.20870    0.88119    1.000
    Si3547   Si       0.57849    0.16907    0.87150    1.000
    N3548    N        0.61228    0.27479    0.04062    1.000
    Si3549   Si       0.61036    0.34050    0.10328    1.000
    N3550    N        0.61958    0.34028    0.05766    1.000
    Si3551   Si       0.60126    0.26162    0.00032    1.000
    Si3552   Si       0.58155    0.27114    0.07363    1.000
    Si3553   Si       0.61512    0.38279    0.05540    1.000
    N3554    N        0.61027    0.38389    0.10013    1.000
    Si3555   Si       0.60027    0.48023    0.07323    1.000
    N3556    N        0.60653    0.44687    0.10209    1.000
    N3557    N        0.61208    0.46570    0.03476    1.000
    Si3558   Si       0.60775    0.43023    0.01021    1.000
    N3559    N        0.58428    0.40261    0.03523    1.000
    N3560    N        0.60336    0.27246    0.16078    1.000
    Si3561   Si       0.62317    0.33624    0.21420    1.000
    N3562    N        0.58368    0.32844    0.19664    1.000
    N3563    N        0.63189    0.42083    0.15819    1.000
    N3564    N        0.58662    0.39738    0.20595    1.000
    Si3565   Si       0.61149    0.46827    0.23071    1.000
    Si3566   Si       0.60699    0.45854    0.14748    1.000
    N3567    N        0.62887    0.50689    0.23549    1.000
    Si3568   Si       0.62903    0.40577    0.19874    1.000
    N3569    N        0.57707    0.50353    0.13931    1.000
    N3570    N        0.58802    0.46486    0.19258    1.000
    N3571    N        0.59605    0.33940    0.32452    1.000
    N3572    N        0.59071    0.27219    0.33488    1.000
    Si3573   Si       0.59350    0.32348    0.28041    1.000
    N3574    N        0.62008    0.28899    0.26858    1.000
    N3575    N        0.60665    0.35367    0.25298    1.000
    Si3576   Si       0.58264    0.30857    0.35562    1.000
    Si3577   Si       0.60322    0.43768    0.30159    1.000
    Si3578   Si       0.60783    0.49297    0.35130    1.000
    N3579    N        0.59230    0.45231    0.34173    1.000
    N3580    N        0.58871    0.46244    0.26634    1.000
    N3581    N        0.63324    0.49764    0.31652    1.000
    N3582    N        0.58097    0.40165    0.29231    1.000
    Si3583   Si       0.57887    0.38699    0.25123    1.000
    Si3584   Si       0.62765    0.35804    0.47617    1.000
    N3585    N        0.61900    0.32232    0.45010    1.000
    N3586    N        0.61156    0.32421    0.38640    1.000
    Si3587   Si       0.59542    0.29283    0.47379    1.000
    N3588    N        0.60606    0.49065    0.45366    1.000
    Si3589   Si       0.62527    0.46566    0.42172    1.000
    Si3590   Si       0.58337    0.40635    0.44451    1.000
    N3591    N        0.60025    0.43009    0.41246    1.000
    N3592    N        0.63306    0.48917    0.38557    1.000
    N3593    N        0.61600    0.40093    0.47184    1.000
    Si3594   Si       0.61171    0.48895    0.49661    1.000
    N3595    N        0.60272    0.34646    0.50934    1.000
    Si3596   Si       0.61586    0.36621    0.54468    1.000
    N3597    N        0.60896    0.31582    0.62054    1.000
    N3598    N        0.58910    0.45556    0.51038    1.000
    N3599    N        0.61194    0.49877    0.58251    1.000
    Si3600   Si       0.62435    0.41997    0.58986    1.000
    Si3601   Si       0.62407    0.42768    0.50656    1.000
    N3602    N        0.62582    0.40953    0.54641    1.000
    N3603    N        0.58194    0.43311    0.59252    1.000
    N3604    N        0.63196    0.38715    0.61850    1.000
    Si3605   Si       0.58314    0.32185    0.65769    1.000
    N3606    N        0.59635    0.35658    0.67870    1.000
    Si3607   Si       0.59188    0.35901    0.72173    1.000
    N3608    N        0.58372    0.28277    0.67308    1.000
    N3609    N        0.63246    0.36142    0.74056    1.000
    Si3610   Si       0.59755    0.46244    0.66695    1.000
    N3611    N        0.58761    0.42094    0.65909    1.000
    N3612    N        0.63922    0.46772    0.66950    1.000
    Si3613   Si       0.61805    0.38928    0.66056    1.000
    N3614    N        0.61227    0.35494    0.80618    1.000
    Si3615   Si       0.59255    0.34441    0.84493    1.000
    Si3616   Si       0.62566    0.31258    0.80583    1.000
    N3617    N        0.58962    0.30218    0.82922    1.000
    Si3618   Si       0.60258    0.39245    0.78172    1.000
    N3619    N        0.58809    0.47328    0.77237    1.000
    Si3620   Si       0.61909    0.50200    0.84017    1.000
    N3621    N        0.58806    0.41714    0.81402    1.000
    Si3622   Si       0.63210    0.46296    0.77928    1.000
    N3623    N        0.62027    0.34545    0.87880    1.000
    N3624    N        0.60485    0.29626    0.97695    1.000
    Si3625   Si       0.60965    0.35744    0.91876    1.000
    N3626    N        0.58590    0.26697    0.91725    1.000
    N3627    N        0.59363    0.45196    0.97644    1.000
    N3628    N        0.60299    0.39788    0.93111    1.000
    N3629    N        0.58898    0.45731    0.90197    1.000
    Si3630   Si       0.58198    0.43424    0.93751    1.000
    Si3631   Si       0.61642    0.49044    0.91233    1.000
    Si3632   Si       0.59026    0.49442    0.98016    1.000
    N3633    N        0.60298    0.59406    0.04134    1.000
    Si3634   Si       0.61895    0.59215    0.08097    1.000
    N3635    N        0.59004    0.57168    0.10645    1.000
    N3636    N        0.62422    0.51071    0.09278    1.000
    N3637    N        0.63172    0.63221    0.09474    1.000
    Si3638   Si       0.59494    0.65699    0.10515    1.000
    Si3639   Si       0.61150    0.71331    0.05003    1.000
    N3640    N        0.61223    0.69698    0.00994    1.000
    N3641    N        0.59671    0.69649    0.08717    1.000
    N3642    N        0.59393    0.74918    0.03175    1.000
    Si3643   Si       0.60689    0.53379    0.12466    1.000
    Si3644   Si       0.59886    0.53805    0.23338    1.000
    Si3645   Si       0.62110    0.58379    0.17946    1.000
    N3646    N        0.62090    0.57219    0.22212    1.000
    N3647    N        0.57970    0.59307    0.16600    1.000
    N3648    N        0.63360    0.54907    0.15447    1.000
    Si3649   Si       0.63929    0.66278    0.16480    1.000
    N3650    N        0.59251    0.74078    0.24064    1.000
    Si3651   Si       0.62782    0.72019    0.22332    1.000
    Si3652   Si       0.58744    0.69933    0.16695    1.000
    N3653    N        0.61972    0.68186    0.24264    1.000
    N3654    N        0.59700    0.65948    0.14806    1.000
    N3655    N        0.62904    0.70383    0.18002    1.000
    Si3656   Si       0.62474    0.60924    0.30523    1.000
    N3657    N        0.59220    0.53940    0.27706    1.000
    Si3658   Si       0.63121    0.51871    0.27855    1.000
    N3659    N        0.58142    0.60307    0.30082    1.000
    N3660    N        0.62469    0.74030    0.30482    1.000
    Si3661   Si       0.61269    0.67161    0.35274    1.000
    N3662    N        0.61571    0.65540    0.31265    1.000
    Si3663   Si       0.59928    0.74184    0.34039    1.000
    N3664    N        0.61799    0.71214    0.36533    1.000
    Si3665   Si       0.63921    0.66212    0.27621    1.000
    N3666    N        0.58459    0.59125    0.37410    1.000
    Si3667   Si       0.62833    0.60104    0.37384    1.000
    N3668    N        0.58495    0.54578    0.42406    1.000
    Si3669   Si       0.61410    0.57465    0.44397    1.000
    N3670    N        0.58611    0.58941    0.47488    1.000
    N3671    N        0.62975    0.64422    0.37987    1.000
    Si3672   Si       0.59040    0.66623    0.45314    1.000
    N3673    N        0.63042    0.64937    0.45060    1.000
    N3674    N        0.59320    0.70928    0.44474    1.000
    Si3675   Si       0.63450    0.71527    0.45447    1.000
    Si3676   Si       0.61046    0.53795    0.55934    1.000
    Si3677   Si       0.60811    0.60775    0.57371    1.000
    N3678    N        0.61489    0.58399    0.53592    1.000
    N3679    N        0.61490    0.56570    0.59547    1.000
    N3680    N        0.62693    0.51952    0.52327    1.000
    N3681    N        0.59669    0.65442    0.56387    1.000
    N3682    N        0.58679    0.71496    0.52654    1.000
    Si3683   Si       0.63106    0.71726    0.53099    1.000
    Si3684   Si       0.63134    0.66795    0.58631    1.000
    N3685    N        0.61832    0.69160    0.61990    1.000
    N3686    N        0.59535    0.59420    0.66204    1.000
    Si3687   Si       0.61997    0.56629    0.63923    1.000
    Si3688   Si       0.60505    0.62533    0.69176    1.000
    N3689    N        0.60957    0.52763    0.65775    1.000
    N3690    N        0.58054    0.60949    0.72635    1.000
    N3691    N        0.59439    0.53450    0.74245    1.000
    N3692    N        0.60328    0.72444    0.73300    1.000
    Si3693   Si       0.58205    0.68550    0.64434    1.000
    N3694    N        0.58050    0.65814    0.67749    1.000
    Si3695   Si       0.59852    0.73646    0.69286    1.000
    N3696    N        0.61721    0.53526    0.81383    1.000
    Si3697   Si       0.61440    0.57454    0.83478    1.000
    Si3698   Si       0.62732    0.53333    0.77025    1.000
    N3699    N        0.62359    0.60683    0.80709    1.000
    Si3700   Si       0.58813    0.63025    0.82167    1.000
    N3701    N        0.60223    0.66126    0.84924    1.000
    Si3702   Si       0.60558    0.72868    0.77682    1.000
    N3703    N        0.62865    0.72805    0.85001    1.000
    Si3704   Si       0.63291    0.68840    0.83364    1.000
    N3705    N        0.63311    0.69615    0.79143    1.000
    Si3706   Si       0.59158    0.73328    0.87245    1.000
    N3707    N        0.63502    0.55496    0.93310    1.000
    Si3708   Si       0.59363    0.55033    0.93700    1.000
    N3709    N        0.62764    0.51603    0.99339    1.000
    N3710    N        0.60781    0.63100    0.97985    1.000
    N3711    N        0.63282    0.51347    0.87966    1.000
    N3712    N        0.58569    0.50905    0.93968    1.000
    Si3713   Si       0.60693    0.59119    0.99914    1.000
    N3714    N        0.58456    0.63123    0.91204    1.000
    N3715    N        0.59526    0.70236    0.90276    1.000
    Si3716   Si       0.63189    0.66656    0.98738    1.000
    Si3717   Si       0.60793    0.66298    0.89348    1.000
    Si3718   Si       0.60656    0.73563    0.99138    1.000
    Si3719   Si       0.59567    0.78200    0.05832    1.000
    Si3720   Si       0.59301    0.83404    0.00647    1.000
    N3721    N        0.60057    0.87403    0.01814    1.000
    Si3722   Si       0.58832    0.87578    0.11009    1.000
    N3723    N        0.63180    0.81700    0.00358    1.000
    N3724    N        0.63489    0.79720    0.06814    1.000
    N3725    N        0.62197    0.99058    0.05553    1.000
    Si3726   Si       0.61351    0.96115    0.02297    1.000
    Si3727   Si       0.58423    0.00432    0.07664    1.000
    N3728    N        0.58715    0.90953    0.08271    1.000
    N3729    N        0.63415    0.76505    0.19501    1.000
    N3730    N        0.62722    0.87190    0.12537    1.000
    N3731    N        0.62031    0.84572    0.19946    1.000
    N3732    N        0.61729    0.80674    0.13785    1.000
    Si3733   Si       0.58440    0.86337    0.21481    1.000
    Si3734   Si       0.63287    0.84299    0.15889    1.000
    N3735    N        0.59754    0.96195    0.13791    1.000
    N3736    N        0.59038    0.96966    0.22620    1.000
    Si3737   Si       0.58469    0.00367    0.14714    1.000
    N3738    N        0.59015    0.90540    0.20665    1.000
    Si3739   Si       0.61656    0.93631    0.21472    1.000
    N3740    N        0.60687    0.84068    0.31594    1.000
    N3741    N        0.59654    0.78255    0.35845    1.000
    Si3742   Si       0.61220    0.83623    0.27225    1.000
    N3743    N        0.62097    0.79668    0.26142    1.000
    Si3744   Si       0.60026    0.76258    0.27645    1.000
    Si3745   Si       0.57965    0.81257    0.33227    1.000
    N3746    N        0.60857    0.95503    0.32124    1.000
    Si3747   Si       0.61564    0.92941    0.28772    1.000
    Si3748   Si       0.58374    0.95641    0.35736    1.000
    Si3749   Si       0.61022    0.87237    0.40439    1.000
    Si3750   Si       0.59995    0.79849    0.39998    1.000
    N3751    N        0.62422    0.86232    0.44478    1.000
    Si3752   Si       0.58533    0.87363    0.46065    1.000
    N3753    N        0.58388    0.83820    0.39153    1.000
    N3754    N        0.58053    0.90106    0.42321    1.000
    N3755    N        0.61208    0.94993    0.39030    1.000
    N3756    N        0.62746    0.94052    0.46402    1.000
    Si3757   Si       0.59961    0.93825    0.42918    1.000
    Si3758   Si       0.59524    0.00610    0.44365    1.000
    Si3759   Si       0.60233    0.85667    0.58427    1.000
    Si3760   Si       0.61829    0.78313    0.57321    1.000
    N3761    N        0.62384    0.82404    0.56425    1.000
    N3762    N        0.61980    0.77150    0.61776    1.000
    Si3763   Si       0.62287    0.77892    0.50169    1.000
    N3764    N        0.57992    0.77390    0.49461    1.000
    N3765    N        0.63427    0.76091    0.54008    1.000
    Si3766   Si       0.57969    0.98804    0.51712    1.000
    N3767    N        0.59295    0.95942    0.60167    1.000
    N3768    N        0.62031    0.89704    0.57878    1.000
    N3769    N        0.59928    0.95104    0.53168    1.000
    Si3770   Si       0.59093    0.93065    0.56930    1.000
    Si3771   Si       0.61510    0.92117    0.50577    1.000
    N3772    N        0.58142    0.89307    0.49996    1.000
    Si3773   Si       0.63362    0.96427    0.61716    1.000
    N3774    N        0.59745    0.81806    0.74695    1.000
    N3775    N        0.60234    0.85039    0.62761    1.000
    N3776    N        0.58641    0.77932    0.68653    1.000
    Si3777   Si       0.62241    0.78372    0.65904    1.000
    N3778    N        0.62489    0.94700    0.70173    1.000
    Si3779   Si       0.61554    0.97961    0.72813    1.000
    Si3780   Si       0.60248    0.90766    0.70229    1.000
    N3781    N        0.59749    0.88360    0.74073    1.000
    N3782    N        0.63627    0.00217    0.63646    1.000
    Si3783   Si       0.60121    0.80318    0.78810    1.000
    Si3784   Si       0.62231    0.85356    0.76112    1.000
    N3785    N        0.62483    0.83846    0.80113    1.000
    N3786    N        0.62206    0.76633    0.79370    1.000
    N3787    N        0.59172    0.89780    0.85551    1.000
    Si3788   Si       0.61994    0.97345    0.80560    1.000
    Si3789   Si       0.60130    0.99812    0.86376    1.000
    N3790    N        0.58162    0.94827    0.80118    1.000
    N3791    N        0.63477    0.97766    0.76568    1.000
    N3792    N        0.57859    0.96087    0.87276    1.000
    N3793    N        0.59317    0.77462    0.88523    1.000
    Si3794   Si       0.62876    0.79980    0.89366    1.000
    N3795    N        0.62246    0.84406    0.89473    1.000
    Si3796   Si       0.58582    0.86454    0.88452    1.000
    Si3797   Si       0.61476    0.93038    0.87072    1.000
    N3798    N        0.63788    0.91300    0.90501    1.000
    Si3799   Si       0.58371    0.98680    0.95709    1.000
    Si3800   Si       0.63146    0.93292    0.94382    1.000
    N3801    N        0.61926    0.98466    0.98648    1.000
    N3802    N        0.62601    0.00656    0.90055    1.000
    N3803    N        0.58837    0.94370    0.94231    1.000
    Si3804   Si       0.64866    0.10746    0.05081    1.000
    N3805    N        0.66706    0.10250    0.01134    1.000
    N3806    N        0.65286    0.03803    0.00528    1.000
    N3807    N        0.63875    0.06863    0.06569    1.000
    N3808    N        0.67618    0.13554    0.06921    1.000
    N3809    N        0.66229    0.18157    0.01735    1.000
    Si3810   Si       0.66975    0.17834    0.06036    1.000
    N3811    N        0.64016    0.18447    0.09082    1.000
    Si3812   Si       0.64954    0.02740    0.15714    1.000
    N3813    N        0.68176    0.03887    0.18697    1.000
    Si3814   Si       0.68453    0.02697    0.22988    1.000
    Si3815   Si       0.65696    0.10491    0.14573    1.000
    N3816    N        0.67172    0.10543    0.18629    1.000
    Si3817   Si       0.65120    0.12796    0.21458    1.000
    N3818    N        0.64130    0.06446    0.13570    1.000
    N3819    N        0.69574    0.10073    0.12556    1.000
    N3820    N        0.65508    0.17000    0.20619    1.000
    N3821    N        0.68817    0.17506    0.14542    1.000
    Si3822   Si       0.69050    0.18722    0.22611    1.000
    Si3823   Si       0.64722    0.17730    0.13367    1.000
    N3824    N        0.66849    0.05855    0.33537    1.000
    N3825    N        0.66920    0.12537    0.25672    1.000
    N3826    N        0.66699    0.05811    0.25420    1.000
    N3827    N        0.68979    0.11879    0.35856    1.000
    Si3828   Si       0.69666    0.09116    0.25806    1.000
    Si3829   Si       0.69338    0.16036    0.34229    1.000
    Si3830   Si       0.68342    0.23192    0.28584    1.000
    Si3831   Si       0.65234    0.15984    0.27804    1.000
    Si3832   Si       0.65619    0.22005    0.34551    1.000
    N3833    N        0.65629    0.15696    0.32104    1.000
    N3834    N        0.67787    0.19381    0.26662    1.000
    N3835    N        0.64663    0.23774    0.30695    1.000
    N3836    N        0.67178    0.18748    0.37081    1.000
    N3837    N        0.66903    0.03860    0.46605    1.000
    N3838    N        0.68084    0.10628    0.48068    1.000
    Si3839   Si       0.65548    0.07912    0.45592    1.000
    Si3840   Si       0.67207    0.11018    0.39581    1.000
    Si3841   Si       0.66671    0.01901    0.42716    1.000
    N3842    N        0.63679    0.08949    0.41661    1.000
    Si3843   Si       0.66778    0.18502    0.41508    1.000
    N3844    N        0.66681    0.19155    0.47156    1.000
    Si3845   Si       0.66509    0.24747    0.41068    1.000
    N3846    N        0.67952    0.14435    0.42182    1.000
    N3847    N        0.66776    0.25559    0.36913    1.000
    Si3848   Si       0.67118    0.05964    0.56236    1.000
    N3849    N        0.65508    0.05840    0.60267    1.000
    N3850    N        0.68115    0.09790    0.54988    1.000
    Si3851   Si       0.66868    0.01731    0.61278    1.000
    Si3852   Si       0.64311    0.02321    0.50091    1.000
    Si3853   Si       0.65815    0.13354    0.56505    1.000
    N3854    N        0.63548    0.04389    0.53836    1.000
    N3855    N        0.67363    0.16651    0.53663    1.000
    Si3856   Si       0.64517    0.16227    0.50260    1.000
    N3857    N        0.69369    0.14554    0.59208    1.000
    Si3858   Si       0.67191    0.11100    0.73341    1.000
    N3859    N        0.63880    0.08601    0.72211    1.000
    Si3860   Si       0.68962    0.16946    0.62729    1.000
    N3861    N        0.63687    0.23673    0.70501    1.000
    N3862    N        0.67970    0.13347    0.69720    1.000
    Si3863   Si       0.64047    0.15481    0.68752    1.000
    Si3864   Si       0.67519    0.22370    0.71938    1.000
    N3865    N        0.65041    0.17023    0.64864    1.000
    N3866    N        0.66752    0.03715    0.76135    1.000
    Si3867   Si       0.67298    0.11444    0.80767    1.000
    N3868    N        0.66872    0.13500    0.76947    1.000
    N3869    N        0.68914    0.13801    0.84103    1.000
    N3870    N        0.66341    0.21430    0.76045    1.000
    Si3871   Si       0.64598    0.17357    0.76393    1.000
    Si3872   Si       0.63979    0.24986    0.76990    1.000
    Si3873   Si       0.66135    0.15306    0.87011    1.000
    N3874    N        0.66664    0.19553    0.86893    1.000
    N3875    N        0.63537    0.24489    0.81316    1.000
    N3876    N        0.67935    0.07298    0.87642    1.000
    N3877    N        0.68109    0.01807    0.94561    1.000
    Si3878   Si       0.64795    0.07573    0.98412    1.000
    N3879    N        0.67603    0.08723    0.95176    1.000
    Si3880   Si       0.66179    0.08801    0.91233    1.000
    Si3881   Si       0.68865    0.12025    0.97988    1.000
    N3882    N        0.64925    0.20603    0.92997    1.000
    Si3883   Si       0.63734    0.21937    0.89103    1.000
    Si3884   Si       0.65917    0.23647    0.95859    1.000
    N3885    N        0.65424    0.13319    0.90996    1.000
    Si3886   Si       0.65394    0.16350    0.94021    1.000
    N3887    N        0.69431    0.15803    0.95920    1.000
    N3888    N        0.67696    0.30509    0.07243    1.000
    N3889    N        0.66388    0.31644    0.00613    1.000
    Si3890   Si       0.64176    0.30517    0.04458    1.000
    Si3891   Si       0.68460    0.31484    0.11619    1.000
    N3892    N        0.67683    0.42954    0.11247    1.000
    Si3893   Si       0.67399    0.41719    0.01744    1.000
    Si3894   Si       0.64466    0.48762    0.01801    1.000
    N3895    N        0.64864    0.41082    0.05594    1.000
    N3896    N        0.67512    0.46049    0.00322    1.000
    Si3897   Si       0.63836    0.41770    0.09890    1.000
    N3898    N        0.67269    0.50201    0.04777    1.000
    N3899    N        0.64597    0.30033    0.20456    1.000
    Si3900   Si       0.64797    0.27247    0.23747    1.000
    N3901    N        0.68067    0.27680    0.14536    1.000
    N3902    N        0.64930    0.36770    0.19955    1.000
    Si3903   Si       0.68837    0.37166    0.18106    1.000
    Si3904   Si       0.64302    0.29244    0.16092    1.000
    N3905    N        0.64171    0.32323    0.12764    1.000
    N3906    N        0.69081    0.41593    0.18371    1.000
    N3907    N        0.64154    0.43660    0.23040    1.000
    Si3908   Si       0.67398    0.44416    0.15450    1.000
    N3909    N        0.64573    0.48039    0.15593    1.000
    N3910    N        0.65412    0.30940    0.32214    1.000
    Si3911   Si       0.68087    0.30196    0.28954    1.000
    N3912    N        0.68352    0.26893    0.26125    1.000
    Si3913   Si       0.68319    0.29235    0.35102    1.000
    N3914    N        0.65153    0.38078    0.35935    1.000
    Si3915   Si       0.63638    0.33996    0.34697    1.000
    N3916    N        0.67474    0.45256    0.35325    1.000
    Si3917   Si       0.66834    0.41312    0.33567    1.000
    Si3918   Si       0.67469    0.48353    0.32179    1.000
    Si3919   Si       0.66778    0.43647    0.26547    1.000
    N3920    N        0.64470    0.42597    0.30079    1.000
    N3921    N        0.69118    0.47048    0.28391    1.000
    N3922    N        0.67610    0.32451    0.37833    1.000
    N3923    N        0.66877    0.35980    0.43011    1.000
    Si3924   Si       0.68142    0.36812    0.38954    1.000
    N3925    N        0.67086    0.28498    0.43041    1.000
    Si3926   Si       0.64866    0.31890    0.41439    1.000
    Si3927   Si       0.69704    0.35897    0.46514    1.000
    N3928    N        0.66618    0.36006    0.49751    1.000
    Si3929   Si       0.68225    0.46602    0.46875    1.000
    Si3930   Si       0.67902    0.48202    0.39053    1.000
    N3931    N        0.66630    0.45743    0.42956    1.000
    Si3932   Si       0.66280    0.36093    0.60293    1.000
    Si3933   Si       0.67513    0.33632    0.53038    1.000
    N3934    N        0.65075    0.34901    0.56445    1.000
    N3935    N        0.67086    0.29355    0.52243    1.000
    N3936    N        0.65749    0.26131    0.59932    1.000
    N3937    N        0.67884    0.32561    0.62104    1.000
    Si3938   Si       0.69519    0.43182    0.60978    1.000
    N3939    N        0.65758    0.44834    0.59678    1.000
    Si3940   Si       0.65414    0.48989    0.58863    1.000
    N3941    N        0.68385    0.49888    0.55769    1.000
    N3942    N        0.65144    0.46217    0.49801    1.000
    Si3943   Si       0.64717    0.29490    0.62543    1.000
    N3944    N        0.65179    0.28643    0.66774    1.000
    N3945    N        0.68872    0.32892    0.71631    1.000
    Si3946   Si       0.68849    0.29226    0.69190    1.000
    N3947    N        0.67108    0.51191    0.62298    1.000
    Si3948   Si       0.65041    0.50901    0.65969    1.000
    Si3949   Si       0.67056    0.44138    0.68278    1.000
    Si3950   Si       0.68218    0.50039    0.73016    1.000
    N3951    N        0.68989    0.46085    0.71472    1.000
    N3952    N        0.64573    0.40502    0.69196    1.000
    Si3953   Si       0.65461    0.39656    0.73473    1.000
    N3954    N        0.65796    0.30727    0.83564    1.000
    N3955    N        0.68081    0.37374    0.85316    1.000
    N3956    N        0.68500    0.34940    0.78403    1.000
    N3957    N        0.64251    0.29312    0.76748    1.000
    Si3958   Si       0.66197    0.33688    0.86550    1.000
    Si3959   Si       0.66094    0.33107    0.74997    1.000
    Si3960   Si       0.66351    0.26399    0.84088    1.000
    N3961    N        0.64781    0.49777    0.75834    1.000
    N3962    N        0.64505    0.46918    0.82078    1.000
    Si3963   Si       0.68473    0.45477    0.83615    1.000
    N3964    N        0.63432    0.42101    0.76810    1.000
    Si3965   Si       0.67943    0.27775    0.90705    1.000
    N3966    N        0.66319    0.27857    0.94660    1.000
    N3967    N        0.68919    0.31918    0.89557    1.000
    Si3968   Si       0.64542    0.31156    0.96827    1.000
    N3969    N        0.65089    0.25849    0.88241    1.000
    N3970    N        0.63931    0.34887    0.94926    1.000
    N3971    N        0.63946    0.40430    0.99319    1.000
    Si3972   Si       0.63932    0.39204    0.95156    1.000
    Si3973   Si       0.68199    0.44896    0.91813    1.000
    Si3974   Si       0.69269    0.39817    0.88744    1.000
    N3975    N        0.67077    0.40568    0.92397    1.000
    N3976    N        0.69053    0.44059    0.87692    1.000
    N3977    N        0.64983    0.47334    0.92987    1.000
    N3978    N        0.65892    0.57070    0.07448    1.000
    Si3979   Si       0.66142    0.52766    0.07990    1.000
    Si3980   Si       0.67686    0.61257    0.00140    1.000
    N3981    N        0.68626    0.52300    0.11545    1.000
    Si3982   Si       0.67768    0.68323    0.03754    1.000
    N3983    N        0.65883    0.64846    0.01879    1.000
    Si3984   Si       0.67824    0.72847    0.09560    1.000
    N3985    N        0.65257    0.71079    0.06224    1.000
    Si3986   Si       0.67454    0.64736    0.10111    1.000
    N3987    N        0.68667    0.58782    0.22143    1.000
    Si3988   Si       0.66627    0.52022    0.15635    1.000
    Si3989   Si       0.68781    0.62147    0.19171    1.000
    N3990    N        0.64449    0.62191    0.17972    1.000
    Si3991   Si       0.65373    0.73764    0.16536    1.000
    N3992    N        0.65306    0.74893    0.12429    1.000
    N3993    N        0.69103    0.72820    0.18368    1.000
    N3994    N        0.67417    0.66820    0.13971    1.000
    Si3995   Si       0.67815    0.55642    0.32430    1.000
    N3996    N        0.65884    0.55250    0.28058    1.000
    N3997    N        0.68836    0.51756    0.34519    1.000
    N3998    N        0.64877    0.58708    0.33670    1.000
    N3999    N        0.64698    0.61964    0.27086    1.000
    Si4000   Si       0.65377    0.58144    0.24901    1.000
    Si4001   Si       0.66339    0.72606    0.29038    1.000
    N4002    N        0.67357    0.68377    0.29169    1.000
    N4003    N        0.69167    0.70182    0.35653    1.000
    N4004    N        0.65671    0.73950    0.24985    1.000
    N4005    N        0.64306    0.58547    0.41153    1.000
    N4006    N        0.68442    0.52516    0.41443    1.000
    N4007    N        0.64767    0.56328    0.47054    1.000
    Si4008   Si       0.68408    0.54139    0.45562    1.000
    Si4009   Si       0.68843    0.59153    0.41227    1.000
    N4010    N        0.69497    0.50922    0.48407    1.000
    N4011    N        0.64271    0.69528    0.49484    1.000
    N4012    N        0.67469    0.75998    0.37155    1.000
    N4013    N        0.64510    0.75545    0.47097    1.000
    Si4014   Si       0.65909    0.65762    0.48237    1.000
    N4015    N        0.65848    0.70218    0.42049    1.000
    Si4016   Si       0.65817    0.71937    0.37872    1.000
    Si4017   Si       0.65014    0.65840    0.41339    1.000
    N4018    N        0.68766    0.63720    0.41494    1.000
    Si4019   Si       0.65025    0.58349    0.50791    1.000
    N4020    N        0.68362    0.56110    0.52470    1.000
    N4021    N        0.66696    0.62564    0.51160    1.000
    Si4022   Si       0.67162    0.51808    0.52152    1.000
    N4023    N        0.64290    0.62613    0.59756    1.000
    Si4024   Si       0.67410    0.60273    0.61716    1.000
    N4025    N        0.65212    0.69528    0.56149    1.000
    N4026    N        0.67537    0.73616    0.61577    1.000
    N4027    N        0.65980    0.57838    0.65034    1.000
    N4028    N        0.66932    0.52598    0.69490    1.000
    Si4029   Si       0.68108    0.62322    0.71728    1.000
    Si4030   Si       0.68776    0.56216    0.68070    1.000
    N4031    N        0.67625    0.71519    0.73472    1.000
    N4032    N        0.64549    0.63061    0.69558    1.000
    Si4033   Si       0.67595    0.73754    0.69497    1.000
    N4034    N        0.63795    0.74189    0.67292    1.000
    Si4035   Si       0.63597    0.72971    0.62960    1.000
    Si4036   Si       0.65741    0.60404    0.77997    1.000
    N4037    N        0.65404    0.56633    0.75967    1.000
    N4038    N        0.64404    0.57821    0.86569    1.000
    N4039    N        0.66533    0.63908    0.75643    1.000
    N4040    N        0.67424    0.67439    0.84399    1.000
    Si4041   Si       0.66645    0.68314    0.76323    1.000
    N4042    N        0.68635    0.74746    0.82576    1.000
    Si4043   Si       0.68632    0.64690    0.87372    1.000
    Si4044   Si       0.65673    0.54865    0.89354    1.000
    Si4045   Si       0.65441    0.54328    0.97037    1.000
    N4046    N        0.69160    0.52229    0.96325    1.000
    N4047    N        0.69308    0.62528    0.96331    1.000
    N4048    N        0.64982    0.57984    0.99406    1.000
    N4049    N        0.64995    0.64727    0.90226    1.000
    N4050    N        0.66078    0.68581    0.96070    1.000
    Si4051   Si       0.67936    0.72314    0.97415    1.000
    N4052    N        0.64601    0.75004    0.98215    1.000
    Si4053   Si       0.67852    0.65546    0.93560    1.000
    Si4054   Si       0.65394    0.82836    0.04089    1.000
    N4055    N        0.65069    0.86773    0.06199    1.000
    Si4056   Si       0.64858    0.79104    0.11093    1.000
    N4057    N        0.68661    0.81192    0.11045    1.000
    N4058    N        0.68321    0.86865    0.00983    1.000
    Si4059   Si       0.64231    0.89183    0.02074    1.000
    Si4060   Si       0.65644    0.89104    0.09902    1.000
    N4061    N        0.65530    0.93341    0.10617    1.000
    Si4062   Si       0.65559    0.96062    0.07123    1.000
    N4063    N        0.64500    0.93312    0.03699    1.000
    N4064    N        0.67587    0.84388    0.16990    1.000
    Si4065   Si       0.66176    0.84726    0.21303    1.000
    N4066    N        0.67739    0.80846    0.22686    1.000
    Si4067   Si       0.64896    0.77823    0.23269    1.000
    N4068    N        0.68241    0.88788    0.21898    1.000
    N4069    N        0.65128    0.99693    0.23314    1.000
    N4070    N        0.64852    0.94105    0.18182    1.000
    Si4071   Si       0.68690    0.92627    0.19849    1.000
    N4072    N        0.66508    0.99309    0.13398    1.000
    Si4073   Si       0.64144    0.95670    0.14196    1.000
    N4074    N        0.67225    0.83444    0.32512    1.000
    N4075    N        0.64996    0.85405    0.26080    1.000
    Si4076   Si       0.68448    0.83448    0.28238    1.000
    Si4077   Si       0.64015    0.86419    0.33158    1.000
    N4078    N        0.64151    0.93038    0.25056    1.000
    N4079    N        0.66956    0.97600    0.29506    1.000
    Si4080   Si       0.66460    0.89407    0.26455    1.000
    N4081    N        0.66012    0.99450    0.35377    1.000
    Si4082   Si       0.66839    0.96410    0.25505    1.000
    Si4083   Si       0.69115    0.96376    0.33155    1.000
    N4084    N        0.67993    0.93773    0.36450    1.000
    N4085    N        0.64394    0.89880    0.30506    1.000
    Si4086   Si       0.63453    0.98881    0.31756    1.000
    N4087    N        0.64053    0.87685    0.37238    1.000
    Si4088   Si       0.64785    0.82968    0.45628    1.000
    Si4089   Si       0.67901    0.78832    0.40581    1.000
    Si4090   Si       0.68687    0.76479    0.47527    1.000
    N4091    N        0.68872    0.84291    0.46075    1.000
    N4092    N        0.64001    0.80057    0.42054    1.000
    N4093    N        0.69489    0.82783    0.39266    1.000
    Si4094   Si       0.66335    0.95307    0.48381    1.000
    Si4095   Si       0.65152    0.96669    0.38380    1.000
    Si4096   Si       0.68189    0.89421    0.37423    1.000
    N4097    N        0.67277    0.97408    0.42271    1.000
    Si4098   Si       0.66245    0.81769    0.53751    1.000
    N4099    N        0.68316    0.85562    0.53006    1.000
    N4100    N        0.68487    0.80308    0.57255    1.000
    N4101    N        0.66618    0.85931    0.61618    1.000
    N4102    N        0.63692    0.81795    0.49799    1.000
    Si4103   Si       0.65545    0.90014    0.60066    1.000
    N4104    N        0.66491    0.97932    0.58685    1.000
    N4105    N        0.65821    0.92027    0.51555    1.000
    N4106    N        0.67299    0.99178    0.50805    1.000
    Si4107   Si       0.69040    0.89843    0.53423    1.000
    Si4108   Si       0.69050    0.99065    0.55011    1.000
    N4109    N        0.69298    0.90474    0.57782    1.000
    N4110    N        0.64704    0.81695    0.66873    1.000
    Si4111   Si       0.66958    0.87258    0.70911    1.000
    Si4112   Si       0.68868    0.80988    0.67288    1.000
    Si4113   Si       0.63844    0.85604    0.65028    1.000
    N4114    N        0.65103    0.92902    0.63373    1.000
    Si4115   Si       0.65849    0.93310    0.67777    1.000
    N4116    N        0.63423    0.88365    0.68314    1.000
    N4117    N        0.68632    0.96706    0.67955    1.000
    N4118    N        0.68499    0.91193    0.70803    1.000
    Si4119   Si       0.65433    0.83551    0.83220    1.000
    N4120    N        0.66623    0.86955    0.85607    1.000
    N4121    N        0.64928    0.79916    0.85444    1.000
    N4122    N        0.68874    0.81904    0.80847    1.000
    N4123    N        0.66526    0.85896    0.74887    1.000
    Si4124   Si       0.64535    0.76216    0.83081    1.000
    N4125    N        0.63633    0.95438    0.84377    1.000
    Si4126   Si       0.67485    0.99627    0.77089    1.000
    Si4127   Si       0.67771    0.96606    0.84558    1.000
    N4128    N        0.67931    0.99173    0.81205    1.000
    N4129    N        0.68212    0.86415    0.93024    1.000
    Si4130   Si       0.65134    0.79276    0.97422    1.000
    Si4131   Si       0.65359    0.87395    0.89887    1.000
    N4132    N        0.65149    0.79315    0.92894    1.000
    Si4133   Si       0.69354    0.78446    0.93164    1.000
    N4134    N        0.69471    0.79940    0.97282    1.000
    Si4135   Si       0.68397    0.88437    0.96963    1.000
    Si4136   Si       0.66202    0.00158    0.98192    1.000
    N4137    N        0.64435    0.90682    0.97614    1.000
    N4138    N        0.66607    0.95954    0.94405    1.000
    N4139    N        0.68935    0.98944    0.88009    1.000
    Si4140   Si       0.66398    0.99321    0.91541    1.000
    N4141    N        0.73660    0.09139    0.07993    1.000
    N4142    N        0.72773    0.02857    0.10380    1.000
    Si4143   Si       0.71062    0.12524    0.09355    1.000
    N4144    N        0.74381    0.01776    0.04140    1.000
    Si4145   Si       0.72617    0.06947    0.11545    1.000
    Si4146   Si       0.73720    0.22243    0.06980    1.000
    N4147    N        0.73799    0.15623    0.10529    1.000
    N4148    N        0.72744    0.22736    0.11081    1.000
    N4149    N        0.70646    0.19853    0.05223    1.000
    Si4150   Si       0.70326    0.19463    0.00414    1.000
    N4151    N        0.74373    0.18381    0.99691    1.000
    N4152    N        0.72371    0.08488    0.22371    1.000
    N4153    N        0.73835    0.06415    0.15832    1.000
    Si4154   Si       0.70357    0.07691    0.18475    1.000
    Si4155   Si       0.74807    0.12134    0.22137    1.000
    N4156    N        0.72567    0.01846    0.23347    1.000
    Si4157   Si       0.75383    0.05137    0.23122    1.000
    N4158    N        0.70632    0.22657    0.21324    1.000
    N4159    N        0.72491    0.15967    0.22283    1.000
    Si4160   Si       0.72567    0.18841    0.13239    1.000
    N4161    N        0.71958    0.09493    0.29523    1.000
    N4162    N        0.73152    0.05881    0.35215    1.000
    Si4163   Si       0.70232    0.08586    0.33482    1.000
    Si4164   Si       0.69106    0.02605    0.35437    1.000
    Si4165   Si       0.74232    0.21044    0.34101    1.000
    N4166    N        0.73605    0.16715    0.33951    1.000
    N4167    N        0.70510    0.22050    0.32252    1.000
    N4168    N        0.74811    0.24839    0.26789    1.000
    N4169    N        0.69998    0.02855    0.40004    1.000
    Si4170   Si       0.70549    0.02117    0.48553    1.000
    Si4171   Si       0.73058    0.06263    0.39847    1.000
    Si4172   Si       0.70603    0.12372    0.44805    1.000
    N4173    N        0.70237    0.08769    0.42132    1.000
    N4174    N        0.74493    0.13587    0.45916    1.000
    N4175    N        0.69906    0.21761    0.42405    1.000
    Si4176   Si       0.73998    0.23327    0.41397    1.000
    Si4177   Si       0.71128    0.20869    0.46701    1.000
    N4178    N        0.70535    0.25220    0.48095    1.000
    N4179    N        0.70414    0.02899    0.56976    1.000
    Si4180   Si       0.70774    0.09609    0.51522    1.000
    N4181    N        0.74039    0.12222    0.52869    1.000
    Si4182   Si       0.74714    0.03727    0.58074    1.000
    N4183    N        0.72150    0.05522    0.50627    1.000
    Si4184   Si       0.72998    0.13548    0.57009    1.000
    Si4185   Si       0.70848    0.19128    0.54042    1.000
    N4186    N        0.74290    0.17893    0.56196    1.000
    N4187    N        0.70020    0.23287    0.55158    1.000
    N4188    N        0.70582    0.20932    0.61960    1.000
    N4189    N        0.72711    0.18624    0.50021    1.000
    Si4190   Si       0.69796    0.24372    0.59339    1.000
    Si4191   Si       0.75250    0.12200    0.64154    1.000
    N4192    N        0.70270    0.02642    0.63980    1.000
    Si4193   Si       0.73560    0.04961    0.65504    1.000
    N4194    N        0.73701    0.02360    0.68985    1.000
    N4195    N        0.70843    0.08722    0.73681    1.000
    N4196    N        0.74006    0.09088    0.66704    1.000
    Si4197   Si       0.74196    0.09584    0.71123    1.000
    N4198    N        0.74712    0.13921    0.71498    1.000
    Si4199   Si       0.71489    0.15820    0.69279    1.000
    Si4200   Si       0.74462    0.20040    0.63666    1.000
    N4201    N        0.72798    0.15918    0.64977    1.000
    N4202    N        0.69941    0.19660    0.69933    1.000
    N4203    N        0.73477    0.03268    0.76972    1.000
    Si4204   Si       0.71478    0.07544    0.84988    1.000
    N4205    N        0.73872    0.03976    0.84290    1.000
    Si4206   Si       0.70176    0.05963    0.77020    1.000
    N4207    N        0.69868    0.08043    0.80848    1.000
    Si4208   Si       0.73279    0.14267    0.85641    1.000
    N4209    N        0.70220    0.24603    0.83824    1.000
    N4210    N        0.74048    0.22973    0.77273    1.000
    Si4211   Si       0.73291    0.25369    0.80883    1.000
    N4212    N        0.73960    0.10276    0.87361    1.000
    N4213    N        0.73556    0.03947    0.90556    1.000
    Si4214   Si       0.72352    0.02255    0.94367    1.000
    N4215    N        0.73220    0.11661    0.98537    1.000
    N4216    N        0.74139    0.04339    0.97554    1.000
    Si4217   Si       0.72717    0.01032    0.87330    1.000
    Si4218   Si       0.70838    0.21924    0.87388    1.000
    Si4219   Si       0.72928    0.24482    0.95006    1.000
    Si4220   Si       0.73950    0.15486    0.96467    1.000
    N4221    N        0.69891    0.22911    0.97631    1.000
    N4222    N        0.70913    0.24582    0.91137    1.000
    N4223    N        0.73320    0.18452    0.87783    1.000
    N4224    N        0.72981    0.32750    0.02974    1.000
    Si4225   Si       0.71844    0.29843    0.06233    1.000
    N4226    N        0.72867    0.29896    0.10749    1.000
    Si4227   Si       0.70054    0.34065    0.99935    1.000
    N4228    N        0.73504    0.26127    0.04872    1.000
    N4229    N        0.71844    0.38165    0.08300    1.000
    Si4230   Si       0.73615    0.36393    0.12086    1.000
    N4231    N        0.69893    0.38207    0.00943    1.000
    Si4232   Si       0.72894    0.39143    0.04138    1.000
    N4233    N        0.71056    0.43165    0.04608    1.000
    N4234    N        0.73337    0.48722    0.07202    1.000
    Si4235   Si       0.70850    0.47491    0.03849    1.000
    Si4236   Si       0.71289    0.42412    0.09038    1.000
    N4237    N        0.73309    0.48711    0.00266    1.000
    Si4238   Si       0.72058    0.49508    0.11391    1.000
    N4239    N        0.73739    0.29684    0.22149    1.000
    N4240    N        0.72247    0.36146    0.20537    1.000
    Si4241   Si       0.72993    0.33563    0.23818    1.000
    Si4242   Si       0.72002    0.26320    0.13456    1.000
    N4243    N        0.69904    0.34910    0.14199    1.000
    Si4244   Si       0.72064    0.25970    0.23605    1.000
    N4245    N        0.71215    0.47107    0.14976    1.000
    Si4246   Si       0.71734    0.42239    0.21773    1.000
    Si4247   Si       0.72218    0.49090    0.18648    1.000
    N4248    N        0.71661    0.46699    0.22135    1.000
    N4249    N        0.71334    0.28934    0.31868    1.000
    Si4250   Si       0.74809    0.27378    0.30258    1.000
    Si4251   Si       0.71315    0.37698    0.27938    1.000
    N4252    N        0.75354    0.36499    0.26504    1.000
    N4253    N        0.69775    0.33683    0.26846    1.000
    N4254    N        0.69959    0.40772    0.25354    1.000
    Si4255   Si       0.73745    0.39404    0.34550    1.000
    Si4256   Si       0.72868    0.47752    0.26202    1.000
    N4257    N        0.70522    0.39392    0.31805    1.000
    N4258    N        0.75802    0.43213    0.34763    1.000
    N4259    N        0.71523    0.32037    0.47724    1.000
    N4260    N        0.73887    0.27634    0.42239    1.000
    Si4261   Si       0.70707    0.28452    0.45333    1.000
    Si4262   Si       0.75053    0.38101    0.41749    1.000
    N4263    N        0.73136    0.38347    0.45740    1.000
    N4264    N        0.72154    0.38551    0.38478    1.000
    Si4265   Si       0.73465    0.48955    0.49258    1.000
    Si4266   Si       0.74934    0.42068    0.46628    1.000
    N4267    N        0.72037    0.45096    0.47627    1.000
    N4268    N        0.72407    0.48187    0.38885    1.000
    Si4269   Si       0.73017    0.36665    0.58147    1.000
    N4270    N        0.71793    0.34528    0.54296    1.000
    N4271    N        0.72543    0.27669    0.59719    1.000
    Si4272   Si       0.74181    0.32569    0.51332    1.000
    N4273    N        0.74136    0.28424    0.53000    1.000
    Si4274   Si       0.70266    0.26423    0.52272    1.000
    N4275    N        0.74910    0.34040    0.61033    1.000
    Si4276   Si       0.72405    0.48859    0.56965    1.000
    N4277    N        0.72810    0.45040    0.58885    1.000
    N4278    N        0.74879    0.49005    0.53279    1.000
    N4279    N        0.69731    0.38908    0.59842    1.000
    Si4280   Si       0.71948    0.31094    0.62316    1.000
    N4281    N        0.73291    0.37449    0.67921    1.000
    N4282    N        0.72222    0.29596    0.66309    1.000
    Si4283   Si       0.71864    0.36317    0.71672    1.000
    Si4284   Si       0.73410    0.26548    0.74595    1.000
    N4285    N        0.69906    0.26151    0.72064    1.000
    N4286    N        0.74883    0.34831    0.74634    1.000
    N4287    N        0.69763    0.39763    0.73343    1.000
    Si4288   Si       0.74104    0.41572    0.66724    1.000
    N4289    N        0.70141    0.43225    0.65305    1.000
    N4290    N        0.75221    0.43218    0.70661    1.000
    Si4291   Si       0.71840    0.43605    0.73561    1.000
    N4292    N        0.73816    0.35803    0.81579    1.000
    N4293    N        0.72916    0.29013    0.78363    1.000
    Si4294   Si       0.72661    0.33329    0.78151    1.000
    Si4295   Si       0.69951    0.37972    0.81342    1.000
    Si4296   Si       0.75042    0.50371    0.75974    1.000
    N4297    N        0.70425    0.42310    0.81302    1.000
    N4298    N        0.73883    0.46042    0.76607    1.000
    N4299    N        0.71854    0.48327    0.82736    1.000
    Si4300   Si       0.73885    0.44891    0.80700    1.000
    N4301    N        0.74911    0.27688    0.97555    1.000
    Si4302   Si       0.72136    0.34197    0.91614    1.000
    N4303    N        0.71691    0.33753    0.95914    1.000
    N4304    N        0.73063    0.38228    0.90030    1.000
    Si4305   Si       0.70087    0.48161    0.97300    1.000
    N4306    N        0.71643    0.45960    0.94023    1.000
    N4307    N        0.70920    0.60310    0.03191    1.000
    N4308    N        0.73267    0.55827    0.07364    1.000
    N4309    N        0.70404    0.61329    0.10316    1.000
    Si4310   Si       0.69983    0.58509    0.06976    1.000
    Si4311   Si       0.72650    0.73137    0.04106    1.000
    Si4312   Si       0.74212    0.66836    0.08454    1.000
    N4313    N        0.70130    0.75282    0.07063    1.000
    Si4314   Si       0.74848    0.73736    0.10449    1.000
    N4315    N        0.69911    0.66872    0.07245    1.000
    N4316    N        0.70005    0.71067    0.01247    1.000
    N4317    N        0.75424    0.71077    0.06940    1.000
    Si4318   Si       0.71520    0.56719    0.19442    1.000
    Si4319   Si       0.73603    0.61324    0.13178    1.000
    N4320    N        0.71801    0.60062    0.16831    1.000
    N4321    N        0.69850    0.52845    0.18476    1.000
    N4322    N        0.73065    0.71171    0.24366    1.000
    N4323    N        0.71518    0.71481    0.12109    1.000
    N4324    N        0.74978    0.69899    0.18509    1.000
    N4325    N        0.75234    0.65384    0.12548    1.000
    Si4326   Si       0.72763    0.73456    0.20653    1.000
    N4327    N        0.70084    0.66161    0.19754    1.000
    Si4328   Si       0.70922    0.69145    0.15893    1.000
    Si4329   Si       0.73594    0.67420    0.22005    1.000
    N4330    N        0.72064    0.56618    0.31502    1.000
    Si4331   Si       0.72518    0.59815    0.34550    1.000
    N4332    N        0.74622    0.51734    0.26614    1.000
    N4333    N        0.70939    0.63720    0.33714    1.000
    Si4334   Si       0.73711    0.72530    0.28530    1.000
    N4335    N        0.74247    0.69104    0.30970    1.000
    Si4336   Si       0.70804    0.74368    0.34902    1.000
    Si4337   Si       0.70283    0.67723    0.32244    1.000
    N4338    N        0.70164    0.74137    0.30668    1.000
    N4339    N        0.70902    0.57377    0.37782    1.000
    N4340    N        0.70924    0.57635    0.44718    1.000
    Si4341   Si       0.74450    0.59933    0.45686    1.000
    Si4342   Si       0.71958    0.52646    0.38227    1.000
    N4343    N        0.75099    0.62937    0.42466    1.000
    N4344    N        0.74371    0.61490    0.49618    1.000
    Si4345   Si       0.73377    0.74226    0.41984    1.000
    N4346    N        0.74335    0.74981    0.37753    1.000
    N4347    N        0.70514    0.66386    0.47547    1.000
    N4348    N        0.70995    0.73502    0.49591    1.000
    Si4349   Si       0.72806    0.69628    0.49421    1.000
    N4350    N        0.74111    0.69994    0.43478    1.000
    Si4351   Si       0.72015    0.66012    0.43491    1.000
    Si4352   Si       0.70911    0.57844    0.55400    1.000
    N4353    N        0.72349    0.61995    0.55400    1.000
    N4354    N        0.73973    0.51912    0.59689    1.000
    Si4355   Si       0.70492    0.53751    0.61750    1.000
    N4356    N        0.75124    0.56438    0.55113    1.000
    N4357    N        0.69336    0.57091    0.59212    1.000
    Si4358   Si       0.69353    0.70169    0.56347    1.000
    Si4359   Si       0.71063    0.63993    0.51488    1.000
    N4360    N        0.71112    0.68320    0.59905    1.000
    N4361    N        0.71041    0.74378    0.56340    1.000
    Si4362   Si       0.73007    0.64431    0.58880    1.000
    N4363    N        0.71750    0.67981    0.53372    1.000
    N4364    N        0.71316    0.62474    0.62595    1.000
    N4365    N        0.72090    0.55125    0.65516    1.000
    N4366    N        0.69842    0.58469    0.71604    1.000
    N4367    N        0.73491    0.74958    0.62468    1.000
    N4368    N        0.71369    0.64502    0.69741    1.000
    N4369    N        0.69900    0.70948    0.67177    1.000
    N4370    N        0.74158    0.70676    0.72830    1.000
    Si4371   Si       0.72527    0.68618    0.69552    1.000
    Si4372   Si       0.73601    0.63421    0.66201    1.000
    Si4373   Si       0.71098    0.71356    0.62918    1.000
    N4374    N        0.72653    0.55435    0.84166    1.000
    Si4375   Si       0.72491    0.59538    0.82140    1.000
    N4376    N        0.71100    0.61364    0.85840    1.000
    Si4377   Si       0.74403    0.51705    0.82953    1.000
    N4378    N        0.69988    0.59006    0.78725    1.000
    N4379    N        0.71350    0.52462    0.75229    1.000
    Si4380   Si       0.69758    0.56301    0.75364    1.000
    N4381    N        0.70490    0.69236    0.78586    1.000
    N4382    N        0.74024    0.69894    0.83910    1.000
    Si4383   Si       0.71315    0.72430    0.75761    1.000
    Si4384   Si       0.70045    0.70594    0.82797    1.000
    Si4385   Si       0.75024    0.68745    0.79668    1.000
    N4386    N        0.69731    0.55502    0.90552    1.000
    Si4387   Si       0.72423    0.57558    0.87924    1.000
    N4388    N        0.73896    0.57276    0.96543    1.000
    Si4389   Si       0.72092    0.54265    0.93981    1.000
    Si4390   Si       0.73598    0.61705    0.96383    1.000
    N4391    N        0.75200    0.51424    0.92657    1.000
    N4392    N        0.75288    0.74181    0.89238    1.000
    N4393    N        0.70969    0.66644    0.90629    1.000
    Si4394   Si       0.74657    0.73297    0.93464    1.000
    Si4395   Si       0.75246    0.66699    0.91394    1.000
    N4396    N        0.70322    0.74200    0.94144    1.000
    N4397    N        0.75387    0.69338    0.94799    1.000
    N4398    N        0.75311    0.64059    0.99689    1.000
    Si4399   Si       0.71327    0.79552    0.07785    1.000
    Si4400   Si       0.71732    0.85367    0.03420    1.000
    Si4401   Si       0.72067    0.79915    0.00709    1.000
    N4402    N        0.74114    0.83806    0.07684    1.000
    N4403    N        0.74332    0.76473    0.01891    1.000
    N4404    N        0.74731    0.78039    0.10107    1.000
    N4405    N        0.74343    0.83600    0.00388    1.000
    N4406    N        0.69504    0.81376    0.03996    1.000
    N4407    N        0.69673    0.88223    0.11722    1.000
    Si4408   Si       0.74690    0.91571    0.00649    1.000
    N4409    N        0.73637    0.89188    0.04201    1.000
    Si4410   Si       0.72089    0.98127    0.03506    1.000
    Si4411   Si       0.70436    0.99184    0.11129    1.000
    N4412    N        0.69577    0.97378    0.07108    1.000
    N4413    N        0.74177    0.77376    0.21654    1.000
    Si4414   Si       0.71889    0.80645    0.23220    1.000
    N4415    N        0.74276    0.82818    0.14733    1.000
    N4416    N        0.73595    0.84241    0.21668    1.000
    Si4417   Si       0.70363    0.84280    0.13482    1.000
    Si4418   Si       0.72227    0.88094    0.23512    1.000
    Si4419   Si       0.72110    0.92040    0.12671    1.000
    N4420    N        0.73198    0.96782    0.13347    1.000
    Si4421   Si       0.74008    0.97726    0.23708    1.000
    N4422    N        0.72073    0.91852    0.17290    1.000
    N4423    N        0.70418    0.95116    0.23194    1.000
    N4424    N        0.73915    0.81188    0.34246    1.000
    N4425    N        0.72080    0.80921    0.27588    1.000
    Si4426   Si       0.70513    0.83711    0.35384    1.000
    N4427    N        0.70661    0.87449    0.27678    1.000
    N4428    N        0.71349    0.87750    0.34690    1.000
    Si4429   Si       0.75270    0.79610    0.30142    1.000
    Si4430   Si       0.72737    0.89690    0.30874    1.000
    N4431    N        0.71947    0.93842    0.31099    1.000
    N4432    N        0.72251    0.99636    0.33946    1.000
    Si4433   Si       0.75140    0.96665    0.31608    1.000
    Si4434   Si       0.70857    0.85496    0.42534    1.000
    N4435    N        0.70356    0.76974    0.43655    1.000
    N4436    N        0.75038    0.84964    0.42985    1.000
    N4437    N        0.73720    0.95853    0.40537    1.000
    N4438    N        0.70012    0.89677    0.41457    1.000
    N4439    N        0.70289    0.94283    0.46858    1.000
    N4440    N        0.73700    0.00871    0.45809    1.000
    Si4441   Si       0.72957    0.00059    0.41512    1.000
    Si4442   Si       0.70293    0.93978    0.42690    1.000
    N4443    N        0.73495    0.85215    0.59763    1.000
    Si4444   Si       0.70238    0.77049    0.60184    1.000
    N4445    N        0.74835    0.83890    0.50852    1.000
    Si4446   Si       0.70675    0.83690    0.49833    1.000
    Si4447   Si       0.72300    0.76465    0.52817    1.000
    Si4448   Si       0.69665    0.83251    0.60167    1.000
    N4449    N        0.69599    0.79548    0.50840    1.000
    Si4450   Si       0.72677    0.89335    0.60054    1.000
    N4451    N        0.72278    0.96182    0.53953    1.000
    N4452    N        0.72896    0.90221    0.51429    1.000
    Si4453   Si       0.73361    0.94101    0.49887    1.000
    N4454    N        0.69477    0.77805    0.70141    1.000
    Si4455   Si       0.72277    0.78761    0.73208    1.000
    Si4456   Si       0.73705    0.86836    0.67379    1.000
    N4457    N        0.70005    0.84811    0.68452    1.000
    N4458    N        0.70306    0.80325    0.63155    1.000
    N4459    N        0.74514    0.94222    0.69534    1.000
    N4460    N        0.75159    0.97569    0.63989    1.000
    Si4461   Si       0.71879    0.99187    0.66442    1.000
    N4462    N        0.72709    0.90036    0.64418    1.000
    Si4463   Si       0.70447    0.94857    0.71428    1.000
    Si4464   Si       0.70960    0.78183    0.81041    1.000
    N4465    N        0.70969    0.76783    0.76807    1.000
    N4466    N        0.74652    0.77925    0.83378    1.000
    Si4467   Si       0.69864    0.84752    0.77467    1.000
    N4468    N        0.71617    0.88029    0.80044    1.000
    N4469    N        0.72973    0.82911    0.74772    1.000
    Si4470   Si       0.70418    0.88887    0.84421    1.000
    N4471    N        0.70690    0.93221    0.84270    1.000
    Si4472   Si       0.74509    0.97119    0.76627    1.000
    Si4473   Si       0.74942    0.95177    0.84161    1.000
    N4474    N        0.74975    0.97956    0.80939    1.000
    N4475    N        0.70461    0.97450    0.74824    1.000
    N4476    N        0.72931    0.87295    0.87542    1.000
    Si4477   Si       0.71562    0.84487    0.90960    1.000
    N4478    N        0.71889    0.80279    0.90117    1.000
    Si4479   Si       0.75014    0.78366    0.87707    1.000
    N4480    N        0.74901    0.85764    0.93496    1.000
    N4481    N        0.73551    0.97918    0.94210    1.000
    N4482    N        0.71416    0.91847    0.97739    1.000
    Si4483   Si       0.70368    0.95622    0.96387    1.000
    N4484    N        0.69405    0.97992    0.00013    1.000
    N4485    N        0.79100    0.05609    0.08092    1.000
    N4486    N        0.77714    0.07600    0.01536    1.000
    Si4487   Si       0.77402    0.08871    0.05671    1.000
    Si4488   Si       0.76687    0.03449    0.00996    1.000
    Si4489   Si       0.76300    0.02264    0.07893    1.000
    N4490    N        0.78954    0.12833    0.06318    1.000
    N4491    N        0.80489    0.01162    0.00728    1.000
    Si4492   Si       0.77938    0.16169    0.08993    1.000
    Si4493   Si       0.77776    0.19576    0.01863    1.000
    N4494    N        0.77267    0.19611    0.06204    1.000
    N4495    N        0.78785    0.23697    0.00544    1.000
    N4496    N        0.81132    0.21947    0.11880    1.000
    Si4497   Si       0.77954    0.05430    0.16296    1.000
    N4498    N        0.78729    0.05232    0.20640    1.000
    N4499    N        0.80094    0.08683    0.14353    1.000
    Si4500   Si       0.80312    0.12839    0.15965    1.000
    N4501    N        0.79202    0.01194    0.15467    1.000
    N4502    N        0.76897    0.13365    0.18539    1.000
    N4503    N        0.75560    0.19771    0.16245    1.000
    N4504    N        0.78877    0.18270    0.22755    1.000
    N4505    N        0.80681    0.15571    0.12478    1.000
    Si4506   Si       0.78366    0.22974    0.15257    1.000
    Si4507   Si       0.75814    0.17444    0.19787    1.000
    N4508    N        0.78742    0.11333    0.31832    1.000
    N4509    N        0.76995    0.05613    0.27139    1.000
    Si4510   Si       0.76259    0.09450    0.28937    1.000
    N4511    N        0.76981    0.12187    0.25611    1.000
    Si4512   Si       0.78662    0.01596    0.28017    1.000
    N4513    N        0.79124    0.01574    0.32382    1.000
    Si4514   Si       0.75850    0.02340    0.35041    1.000
    Si4515   Si       0.78154    0.22100    0.28141    1.000
    N4516    N        0.78791    0.17901    0.29551    1.000
    N4517    N        0.77415    0.24155    0.32242    1.000
    Si4518   Si       0.77892    0.15473    0.33190    1.000
    Si4519   Si       0.79902    0.15255    0.26313    1.000
    N4520    N        0.80101    0.16656    0.36658    1.000
    N4521    N        0.78533    0.07902    0.48005    1.000
    N4522    N        0.76446    0.08337    0.41309    1.000
    Si4523   Si       0.77555    0.10653    0.44800    1.000
    N4524    N        0.76361    0.01836    0.39299    1.000
    N4525    N        0.81328    0.13011    0.43873    1.000
    N4526    N        0.75919    0.21757    0.37905    1.000
    Si4527   Si       0.80135    0.20649    0.38613    1.000
    N4528    N        0.75640    0.21706    0.44963    1.000
    N4529    N        0.79590    0.17047    0.48759    1.000
    Si4530   Si       0.79682    0.20662    0.46302    1.000
    N4531    N        0.76894    0.06406    0.55438    1.000
    Si4532   Si       0.76377    0.05578    0.51091    1.000
    Si4533   Si       0.78752    0.10004    0.57471    1.000
    N4534    N        0.77879    0.01383    0.50839    1.000
    N4535    N        0.75396    0.11300    0.59875    1.000
    N4536    N        0.76447    0.04439    0.62133    1.000
    Si4537   Si       0.78164    0.19391    0.57360    1.000
    N4538    N        0.77607    0.23736    0.57621    1.000
    N4539    N        0.77960    0.18510    0.61625    1.000
    Si4540   Si       0.75653    0.15398    0.49928    1.000
    Si4541   Si       0.81340    0.25799    0.58538    1.000
    Si4542   Si       0.80639    0.05919    0.62695    1.000
    N4543    N        0.77146    0.06952    0.72618    1.000
    N4544    N        0.79482    0.12640    0.64926    1.000
    Si4545   Si       0.75465    0.02875    0.72984    1.000
    Si4546   Si       0.80735    0.08701    0.74122    1.000
    Si4547   Si       0.80026    0.21987    0.68227    1.000
    Si4548   Si       0.81317    0.16310    0.63324    1.000
    N4549    N        0.78051    0.20057    0.71539    1.000
    N4550    N        0.76566    0.23456    0.65744    1.000
    Si4551   Si       0.78648    0.15665    0.72382    1.000
    N4552    N        0.80029    0.02851    0.80112    1.000
    N4553    N        0.80060    0.10009    0.78276    1.000
    Si4554   Si       0.75664    0.02331    0.80698    1.000
    Si4555   Si       0.79467    0.13945    0.79829    1.000
    N4556    N        0.78754    0.16975    0.76661    1.000
    N4557    N        0.76811    0.14465    0.83010    1.000
    Si4558   Si       0.77755    0.21216    0.75739    1.000
    Si4559   Si       0.80311    0.15183    0.85487    1.000
    N4560    N        0.81033    0.24307    0.76040    1.000
    N4561    N        0.76885    0.25183    0.83020    1.000
    Si4562   Si       0.76209    0.07140    0.89831    1.000
    N4563    N        0.80255    0.05147    0.89387    1.000
    N4564    N        0.76886    0.09127    0.93604    1.000
    Si4565   Si       0.79651    0.12406    0.92593    1.000
    Si4566   Si       0.75638    0.08315    0.97610    1.000
    Si4567   Si       0.76750    0.19222    0.90726    1.000
    Si4568   Si       0.79552    0.24614    0.96071    1.000
    N4569    N        0.76594    0.22509    0.93534    1.000
    N4570    N        0.76871    0.15678    0.93424    1.000
    N4571    N        0.80210    0.18961    0.87953    1.000
    N4572    N        0.79035    0.30381    0.03266    1.000
    Si4573   Si       0.77122    0.34154    0.02147    1.000
    N4574    N        0.77302    0.34590    0.10566    1.000
    N4575    N        0.80305    0.28675    0.10609    1.000
    Si4576   Si       0.76253    0.27023    0.01677    1.000
    N4577    N        0.76908    0.38357    0.03343    1.000
    N4578    N        0.78177    0.45224    0.03230    1.000
    Si4579   Si       0.77037    0.46646    0.07289    1.000
    Si4580   Si       0.80179    0.41301    0.02795    1.000
    Si4581   Si       0.77629    0.48245    0.00233    1.000
    N4582    N        0.75499    0.43428    0.09764    1.000
    Si4583   Si       0.76667    0.30632    0.12375    1.000
    N4584    N        0.76003    0.26560    0.15769    1.000
    N4585    N        0.79607    0.36280    0.20759    1.000
    Si4586   Si       0.76766    0.29274    0.18955    1.000
    N4587    N        0.76270    0.32776    0.16371    1.000
    Si4588   Si       0.75974    0.36540    0.18253    1.000
    N4589    N        0.81171    0.29500    0.19321    1.000
    N4590    N        0.75177    0.39260    0.14919    1.000
    N4591    N        0.81167    0.46617    0.22906    1.000
    Si4592   Si       0.77984    0.42131    0.13273    1.000
    Si4593   Si       0.78100    0.38721    0.24010    1.000
    N4594    N        0.76055    0.41924    0.21615    1.000
    N4595    N        0.76759    0.50055    0.19364    1.000
    Si4596   Si       0.78205    0.45412    0.19975    1.000
    N4597    N        0.79135    0.45541    0.15873    1.000
    Si4598   Si       0.78864    0.49957    0.15296    1.000
    N4599    N        0.77575    0.30500    0.29517    1.000
    Si4600   Si       0.77372    0.34659    0.30005    1.000
    N4601    N        0.76492    0.36202    0.33814    1.000
    Si4602   Si       0.80140    0.26690    0.34640    1.000
    Si4603   Si       0.78797    0.34086    0.36821    1.000
    N4604    N        0.78164    0.29794    0.36748    1.000
    Si4605   Si       0.77529    0.46427    0.32214    1.000
    Si4606   Si       0.80325    0.44748    0.26802    1.000
    N4607    N        0.76070    0.45418    0.28055    1.000
    N4608    N        0.81183    0.40577    0.26362    1.000
    N4609    N        0.76946    0.50557    0.33054    1.000
    N4610    N        0.76977    0.34367    0.40838    1.000
    Si4611   Si       0.77201    0.30144    0.41416    1.000
    N4612    N        0.81057    0.28861    0.42835    1.000
    Si4613   Si       0.80769    0.48914    0.47011    1.000
    Si4614   Si       0.75495    0.45153    0.38723    1.000
    N4615    N        0.75989    0.42546    0.42081    1.000
    N4616    N        0.76554    0.50335    0.46490    1.000
    N4617    N        0.79442    0.47278    0.38628    1.000
    N4618    N        0.79209    0.29643    0.58293    1.000
    N4619    N        0.77819    0.34759    0.51061    1.000
    Si4620   Si       0.78928    0.32603    0.61463    1.000
    Si4621   Si       0.75741    0.27534    0.56887    1.000
    Si4622   Si       0.78517    0.38446    0.53277    1.000
    Si4623   Si       0.78932    0.48447    0.54646    1.000
    N4624    N        0.79498    0.45674    0.57791    1.000
    Si4625   Si       0.76582    0.42903    0.59490    1.000
    N4626    N        0.76390    0.39369    0.56978    1.000
    N4627    N        0.77597    0.41645    0.50096    1.000
    Si4628   Si       0.76019    0.27462    0.67101    1.000
    N4629    N        0.79122    0.29979    0.65104    1.000
    N4630    N        0.76344    0.27278    0.71525    1.000
    Si4631   Si       0.80550    0.27225    0.72806    1.000
    Si4632   Si       0.78416    0.45431    0.72330    1.000
    N4633    N        0.77767    0.49728    0.72573    1.000
    N4634    N        0.77149    0.41999    0.63793    1.000
    Si4635   Si       0.81296    0.41125    0.65518    1.000
    N4636    N        0.78250    0.31720    0.85394    1.000
    Si4637   Si       0.77683    0.35096    0.82864    1.000
    Si4638   Si       0.79956    0.28007    0.84382    1.000
    N4639    N        0.80414    0.34532    0.79538    1.000
    Si4640   Si       0.79094    0.34779    0.75118    1.000
    N4641    N        0.79297    0.37682    0.85922    1.000
    N4642    N        0.77905    0.44775    0.82064    1.000
    Si4643   Si       0.78645    0.46697    0.86118    1.000
    N4644    N        0.80854    0.43973    0.75612    1.000
    N4645    N        0.77164    0.50700    0.86291    1.000
    Si4646   Si       0.81183    0.37339    0.96173    1.000
    Si4647   Si       0.79122    0.34236    0.89047    1.000
    N4648    N        0.78708    0.34339    0.98017    1.000
    Si4649   Si       0.76929    0.30942    0.95566    1.000
    N4650    N        0.80505    0.28521    0.94440    1.000
    N4651    N        0.75949    0.32147    0.91402    1.000
    N4652    N        0.79454    0.37894    0.92244    1.000
    Si4653   Si       0.77134    0.40154    0.89428    1.000
    N4654    N        0.78433    0.46448    0.96293    1.000
    N4655    N        0.77251    0.44534    0.89675    1.000
    Si4656   Si       0.75688    0.46994    0.93024    1.000
    N4657    N        0.78083    0.58270    0.01918    1.000
    Si4658   Si       0.76742    0.54982    0.09964    1.000
    N4659    N        0.80482    0.54665    0.07940    1.000
    Si4660   Si       0.75363    0.61318    0.03180    1.000
    N4661    N        0.76984    0.63832    0.06403    1.000
    N4662    N        0.78658    0.70771    0.00892    1.000
    Si4663   Si       0.79616    0.70809    0.05077    1.000
    N4664    N        0.81013    0.74875    0.06477    1.000
    Si4665   Si       0.81420    0.75517    0.10887    1.000
    N4666    N        0.80863    0.60373    0.23833    1.000
    N4667    N        0.75835    0.51608    0.12508    1.000
    N4668    N        0.77034    0.58552    0.12451    1.000
    Si4669   Si       0.77135    0.60637    0.21029    1.000
    N4670    N        0.79087    0.62466    0.17625    1.000
    Si4671   Si       0.76825    0.52865    0.22925    1.000
    Si4672   Si       0.80648    0.59631    0.14499    1.000
    N4673    N        0.75462    0.56678    0.21328    1.000
    Si4674   Si       0.78740    0.71551    0.17081    1.000
    N4675    N        0.80314    0.74514    0.19824    1.000
    N4676    N        0.75404    0.63928    0.23499    1.000
    Si4677   Si       0.79240    0.65493    0.14528    1.000
    N4678    N        0.78448    0.73130    0.12868    1.000
    Si4679   Si       0.79198    0.60342    0.32227    1.000
    N4680    N        0.78329    0.57165    0.29361    1.000
    N4681    N        0.76541    0.60467    0.35770    1.000
    Si4682   Si       0.79298    0.51147    0.36868    1.000
    Si4683   Si       0.75446    0.53889    0.30377    1.000
    Si4684   Si       0.79313    0.63940    0.25658    1.000
    N4685    N        0.78900    0.64041    0.29970    1.000
    Si4686   Si       0.78091    0.67596    0.32372    1.000
    N4687    N        0.78177    0.66911    0.36716    1.000
    N4688    N        0.76749    0.75539    0.29207    1.000
    N4689    N        0.81049    0.70828    0.31243    1.000
    Si4690   Si       0.80990    0.76074    0.28169    1.000
    N4691    N        0.76642    0.53382    0.39489    1.000
    Si4692   Si       0.78031    0.53512    0.43628    1.000
    N4693    N        0.78261    0.57725    0.44824    1.000
    Si4694   Si       0.77550    0.63217    0.38934    1.000
    N4695    N        0.81329    0.69008    0.43285    1.000
    Si4696   Si       0.78150    0.71250    0.44964    1.000
    N4697    N        0.77300    0.70713    0.49298    1.000
    N4698    N        0.77658    0.75322    0.43293    1.000
    Si4699   Si       0.78563    0.75897    0.38721    1.000
    Si4700   Si       0.77273    0.54279    0.58050    1.000
    N4701    N        0.80029    0.61503    0.54361    1.000
    N4702    N        0.79017    0.56775    0.61219    1.000
    Si4703   Si       0.76012    0.60383    0.53486    1.000
    N4704    N        0.80642    0.52358    0.55947    1.000
    N4705    N        0.77221    0.64684    0.60037    1.000
    N4706    N        0.78401    0.71480    0.60231    1.000
    Si4707   Si       0.79505    0.73722    0.51402    1.000
    Si4708   Si       0.80905    0.64112    0.57726    1.000
    N4709    N        0.78829    0.53440    0.66565    1.000
    Si4710   Si       0.79656    0.53056    0.70765    1.000
    Si4711   Si       0.79872    0.60835    0.69273    1.000
    Si4712   Si       0.76225    0.56412    0.64779    1.000
    N4713    N        0.76541    0.60329    0.66627    1.000
    N4714    N        0.80175    0.57417    0.71787    1.000
    Si4715   Si       0.77425    0.72830    0.74321    1.000
    N4716    N        0.80842    0.70912    0.72521    1.000
    Si4717   Si       0.79495    0.68917    0.68875    1.000
    N4718    N        0.79708    0.73377    0.66161    1.000
    Si4719   Si       0.77693    0.75034    0.62736    1.000
    Si4720   Si       0.78192    0.67922    0.62777    1.000
    N4721    N        0.75705    0.67632    0.66339    1.000
    N4722    N        0.79639    0.64725    0.71083    1.000
    N4723    N        0.76453    0.60694    0.81323    1.000
    N4724    N        0.77178    0.51963    0.79561    1.000
    Si4725   Si       0.79588    0.62983    0.80207    1.000
    N4726    N        0.78084    0.66473    0.77981    1.000
    N4727    N        0.80134    0.73745    0.84097    1.000
    Si4728   Si       0.77147    0.71536    0.86482    1.000
    N4729    N        0.75932    0.72846    0.78293    1.000
    N4730    N        0.76416    0.57313    0.89646    1.000
    Si4731   Si       0.77995    0.55977    0.98170    1.000
    Si4732   Si       0.77899    0.53131    0.89668    1.000
    Si4733   Si       0.79046    0.59927    0.91992    1.000
    N4734    N        0.80888    0.57387    0.95288    1.000
    N4735    N        0.76019    0.62912    0.92996    1.000
    N4736    N        0.79557    0.52191    0.99838    1.000
    Si4737   Si       0.78213    0.75355    0.99775    1.000
    Si4738   Si       0.77592    0.67447    0.98134    1.000
    N4739    N        0.78221    0.67896    0.88525    1.000
    N4740    N        0.81463    0.66210    0.96677    1.000
    Si4741   Si       0.76823    0.81652    0.11186    1.000
    N4742    N        0.79087    0.85800    0.11035    1.000
    Si4743   Si       0.76576    0.87837    0.07446    1.000
    N4744    N        0.80860    0.79784    0.11554    1.000
    N4745    N        0.80269    0.89576    0.05713    1.000
    Si4746   Si       0.79402    0.97583    0.03161    1.000
    N4747    N        0.79429    0.99093    0.07338    1.000
    N4748    N        0.75583    0.95422    0.02495    1.000
    N4749    N        0.75742    0.90815    0.10571    1.000
    Si4750   Si       0.76476    0.83928    0.18335    1.000
    N4751    N        0.79858    0.81236    0.19148    1.000
    Si4752   Si       0.78675    0.77991    0.21609    1.000
    N4753    N        0.77675    0.87935    0.17465    1.000
    Si4754   Si       0.76240    0.91897    0.18960    1.000
    Si4755   Si       0.76575    0.97470    0.16002    1.000
    N4756    N        0.78794    0.93658    0.15705    1.000
    Si4757   Si       0.78822    0.89444    0.13520    1.000
    N4758    N        0.76903    0.96753    0.20787    1.000
    Si4759   Si       0.81109    0.96926    0.22394    1.000
    N4760    N        0.75721    0.90538    0.23039    1.000
    N4761    N        0.78544    0.82400    0.30676    1.000
    N4762    N        0.79376    0.87018    0.35666    1.000
    Si4763   Si       0.77816    0.82924    0.35043    1.000
    N4764    N        0.80870    0.79392    0.25281    1.000
    N4765    N        0.76994    0.90001    0.29921    1.000
    N4766    N        0.77377    0.94349    0.34582    1.000
    Si4767   Si       0.78828    0.90264    0.25957    1.000
    Si4768   Si       0.79541    0.90768    0.33357    1.000
    N4769    N        0.75985    0.98313    0.27552    1.000
    N4770    N        0.81705    0.93573    0.25071    1.000
    Si4771   Si       0.81086    0.77511    0.45531    1.000
    N4772    N        0.79619    0.79934    0.37724    1.000
    N4773    N        0.79992    0.81275    0.47306    1.000
    Si4774   Si       0.79080    0.85010    0.45035    1.000
    Si4775   Si       0.79580    0.92276    0.45424    1.000
    N4776    N        0.78582    0.88487    0.47398    1.000
    N4777    N        0.81527    0.00650    0.44812    1.000
    N4778    N        0.81252    0.96877    0.39509    1.000
    N4779    N        0.78594    0.91215    0.41355    1.000
    Si4780   Si       0.77540    0.94727    0.38808    1.000
    Si4781   Si       0.77717    0.99363    0.47070    1.000
    N4782    N        0.76810    0.94982    0.47496    1.000
    Si4783   Si       0.80563    0.00971    0.40617    1.000
    Si4784   Si       0.78100    0.81039    0.51115    1.000
    N4785    N        0.78598    0.79023    0.60672    1.000
    N4786    N        0.76571    0.77063    0.51903    1.000
    Si4787   Si       0.77226    0.83140    0.61458    1.000
    N4788    N        0.80969    0.85775    0.60417    1.000
    Si4789   Si       0.76759    0.88043    0.51388    1.000
    N4790    N        0.80735    0.81617    0.54424    1.000
    N4791    N        0.80035    0.88565    0.54051    1.000
    N4792    N        0.79371    0.95203    0.54065    1.000
    Si4793   Si       0.79828    0.90299    0.60726    1.000
    Si4794   Si       0.79733    0.99611    0.54364    1.000
    N4795    N        0.76700    0.99684    0.57613    1.000
    N4796    N        0.76092    0.91835    0.59028    1.000
    Si4797   Si       0.75597    0.95381    0.56538    1.000
    Si4798   Si       0.77895    0.00190    0.61967    1.000
    Si4799   Si       0.80404    0.84401    0.68457    1.000
    N4800    N        0.79719    0.82804    0.72452    1.000
    N4801    N        0.76916    0.84399    0.65606    1.000
    N4802    N        0.76373    0.76881    0.72656    1.000
    Si4803   Si       0.80154    0.78783    0.73783    1.000
    Si4804   Si       0.76663    0.85095    0.74396    1.000
    N4805    N        0.76155    0.88070    0.71015    1.000
    Si4806   Si       0.77109    0.92072    0.72285    1.000
    N4807    N        0.79373    0.91750    0.64638    1.000
    Si4808   Si       0.75418    0.93529    0.65331    1.000
    N4809    N        0.77216    0.99013    0.73806    1.000
    Si4810   Si       0.81118    0.97691    0.72321    1.000
    N4811    N        0.80961    0.93425    0.71307    1.000
    N4812    N        0.77942    0.86762    0.78029    1.000
    N4813    N        0.80094    0.77808    0.78283    1.000
    Si4814   Si       0.77550    0.75713    0.81016    1.000
    N4815    N        0.80883    0.83002    0.83008    1.000
    Si4816   Si       0.81240    0.83091    0.87350    1.000
    N4817    N        0.77358    0.91571    0.83145    1.000
    Si4818   Si       0.75316    0.90062    0.79575    1.000
    N4819    N        0.75425    0.92832    0.76267    1.000
    N4820    N        0.77109    0.76143    0.95684    1.000
    N4821    N        0.79564    0.82518    0.96604    1.000
    Si4822   Si       0.76750    0.85632    0.97326    1.000
    N4823    N        0.80175    0.87066    0.89030    1.000
    Si4824   Si       0.79418    0.79396    0.93606    1.000
    N4825    N        0.78622    0.80320    0.89492    1.000
    Si4826   Si       0.76250    0.88453    0.90250    1.000
    Si4827   Si       0.76832    0.96651    0.91529    1.000
    N4828    N        0.76643    0.92343    0.91891    1.000
    N4829    N        0.78131    0.89220    0.99272    1.000
    N4830    N        0.75697    0.97808    0.87376    1.000
    N4831    N        0.80699    0.98387    0.92542    1.000
    N4832    N        0.84846    0.09992    0.09103    1.000
    N4833    N        0.84633    0.11714    0.02322    1.000
    Si4834   Si       0.83371    0.12905    0.06287    1.000
    Si4835   Si       0.82214    0.07148    0.10853    1.000
    N4836    N        0.84585    0.03684    0.11823    1.000
    N4837    N        0.84553    0.16775    0.07340    1.000
    N4838    N        0.86128    0.22090    0.02431    1.000
    Si4839   Si       0.84038    0.18488    0.11416    1.000
    Si4840   Si       0.83421    0.25441    0.10529    1.000
    N4841    N        0.81317    0.17371    0.99673    1.000
    Si4842   Si       0.85153    0.10670    0.22405    1.000
    N4843    N        0.85298    0.03223    0.18739    1.000
    Si4844   Si       0.82605    0.03617    0.21911    1.000
    N4845    N        0.83652    0.12871    0.18797    1.000
    Si4846   Si       0.83615    0.00235    0.15872    1.000
    N4847    N        0.81487    0.22851    0.18332    1.000
    N4848    N        0.86632    0.17427    0.14788    1.000
    Si4849   Si       0.86389    0.16100    0.18826    1.000
    N4850    N        0.85920    0.18886    0.22049    1.000
    Si4851   Si       0.82106    0.20919    0.22068    1.000
    N4852    N        0.84266    0.06604    0.31810    1.000
    Si4853   Si       0.82613    0.10368    0.33254    1.000
    Si4854   Si       0.83216    0.02756    0.33749    1.000
    Si4855   Si       0.86728    0.06503    0.28142    1.000
    N4856    N        0.84118    0.06831    0.24441    1.000
    N4857    N        0.83782    0.13544    0.25545    1.000
    N4858    N        0.85390    0.13746    0.32231    1.000
    Si4859   Si       0.86819    0.24057    0.36669    1.000
    N4860    N        0.82468    0.23729    0.36858    1.000
    N4861    N        0.81501    0.23607    0.25615    1.000
    Si4862   Si       0.85343    0.25929    0.25424    1.000
    N4863    N        0.82803    0.10411    0.37556    1.000
    N4864    N        0.84331    0.11300    0.49606    1.000
    N4865    N        0.83127    0.03327    0.38094    1.000
    N4866    N        0.84080    0.06236    0.43860    1.000
    Si4867   Si       0.84843    0.07071    0.39673    1.000
    Si4868   Si       0.82833    0.07621    0.47674    1.000
    Si4869   Si       0.85534    0.02058    0.46203    1.000
    Si4870   Si       0.86126    0.19117    0.42483    1.000
    N4871    N        0.82048    0.23774    0.48615    1.000
    N4872    N        0.86541    0.17321    0.46562    1.000
    N4873    N        0.81682    0.19914    0.42568    1.000
    N4874    N        0.86329    0.15714    0.39773    1.000
    Si4875   Si       0.83145    0.14834    0.47373    1.000
    Si4876   Si       0.82157    0.14091    0.39649    1.000
    N4877    N        0.82460    0.08156    0.59545    1.000
    Si4878   Si       0.86733    0.01074    0.52318    1.000
    Si4879   Si       0.85314    0.00862    0.59452    1.000
    Si4880   Si       0.86936    0.08349    0.58735    1.000
    N4881    N        0.85701    0.04823    0.49903    1.000
    N4882    N        0.83762    0.00482    0.55430    1.000
    N4883    N        0.80738    0.13628    0.56433    1.000
    N4884    N        0.81997    0.19641    0.54994    1.000
    Si4885   Si       0.83882    0.22560    0.52222    1.000
    Si4886   Si       0.84286    0.16128    0.56649    1.000
    N4887    N        0.84473    0.17772    0.60787    1.000
    Si4888   Si       0.86197    0.21469    0.62012    1.000
    N4889    N        0.83457    0.25098    0.62316    1.000
    N4890    N        0.82087    0.01517    0.62398    1.000
    Si4891   Si       0.84121    0.02567    0.66459    1.000
    Si4892   Si       0.82413    0.10954    0.67640    1.000
    N4893    N        0.82287    0.06647    0.66617    1.000
    N4894    N        0.86240    0.12795    0.66730    1.000
    N4895    N        0.81434    0.12197    0.71629    1.000
    Si4896   Si       0.86323    0.17242    0.67932    1.000
    N4897    N        0.82207    0.25537    0.69123    1.000
    N4898    N        0.82430    0.18611    0.67003    1.000
    N4899    N        0.84190    0.07292    0.83737    1.000
    Si4900   Si       0.82443    0.06387    0.79633    1.000
    N4901    N        0.84226    0.06368    0.75429    1.000
    N4902    N        0.86564    0.01143    0.81006    1.000
    N4903    N        0.82933    0.15087    0.82010    1.000
    N4904    N        0.84081    0.21809    0.82515    1.000
    Si4905   Si       0.84161    0.24967    0.79194    1.000
    Si4906   Si       0.86143    0.17989    0.81438    1.000
    Si4907   Si       0.82961    0.22212    0.86780    1.000
    Si4908   Si       0.83029    0.08191    0.87730    1.000
    Si4909   Si       0.82524    0.02326    0.91926    1.000
    N4910    N        0.84492    0.04047    0.95446    1.000
    Si4911   Si       0.85618    0.08163    0.94781    1.000
    N4912    N        0.82779    0.11631    0.95184    1.000
    N4913    N        0.86376    0.07862    0.90393    1.000
    Si4914   Si       0.84679    0.02364    0.99543    1.000
    N4915    N        0.81194    0.12179    0.88435    1.000
    Si4916   Si       0.86710    0.23211    0.93085    1.000
    Si4917   Si       0.84757    0.20053    0.98790    1.000
    Si4918   Si       0.83695    0.13781    0.98619    1.000
    N4919    N        0.83232    0.22350    0.95456    1.000
    N4920    N        0.83105    0.34505    0.07165    1.000
    N4921    N        0.84891    0.27310    0.06722    1.000
    Si4922   Si       0.85898    0.37559    0.05867    1.000
    Si4923   Si       0.81726    0.30300    0.06703    1.000
    Si4924   Si       0.81347    0.36148    0.11057    1.000
    Si4925   Si       0.83578    0.43534    0.09023    1.000
    N4926    N        0.83773    0.41510    0.05231    1.000
    N4927    N        0.84224    0.47299    0.00007    1.000
    N4928    N        0.81451    0.40516    0.11264    1.000
    N4929    N        0.81307    0.47262    0.08882    1.000
    N4930    N        0.85821    0.26585    0.14190    1.000
    N4931    N        0.83604    0.35068    0.14563    1.000
    Si4932   Si       0.82367    0.33689    0.18498    1.000
    N4933    N        0.86633    0.34031    0.20011    1.000
    Si4934   Si       0.84032    0.26343    0.18237    1.000
    N4935    N        0.87036    0.25463    0.21376    1.000
    Si4936   Si       0.83847    0.50087    0.22711    1.000
    N4937    N        0.86589    0.50642    0.19319    1.000
    N4938    N        0.83392    0.28834    0.32511    1.000
    N4939    N        0.85123    0.30203    0.25984    1.000
    Si4940   Si       0.81885    0.30771    0.28993    1.000
    Si4941   Si       0.85136    0.38110    0.36872    1.000
    N4942    N        0.81710    0.34992    0.29624    1.000
    Si4943   Si       0.83925    0.38571    0.28921    1.000
    N4944    N        0.87150    0.36676    0.26413    1.000
    N4945    N        0.84833    0.40153    0.33047    1.000
    Si4946   Si       0.85645    0.44262    0.31883    1.000
    N4947    N        0.81879    0.45927    0.30749    1.000
    N4948    N        0.86608    0.50071    0.26039    1.000
    Si4949   Si       0.86483    0.49419    0.37015    1.000
    N4950    N        0.82134    0.38176    0.47063    1.000
    N4951    N        0.83116    0.34306    0.37376    1.000
    Si4952   Si       0.83006    0.27467    0.46531    1.000
    N4953    N        0.85831    0.33571    0.43772    1.000
    Si4954   Si       0.84061    0.31232    0.40523    1.000
    N4955    N        0.86893    0.28568    0.38559    1.000
    Si4956   Si       0.84706    0.38068    0.43493    1.000
    N4957    N        0.87453    0.27214    0.45831    1.000
    Si4958   Si       0.82045    0.34832    0.49921    1.000
    N4959    N        0.83545    0.30636    0.49613    1.000
    N4960    N        0.81736    0.45290    0.44911    1.000
    N4961    N        0.83186    0.40147    0.40050    1.000
    Si4962   Si       0.81645    0.42477    0.48464    1.000
    Si4963   Si       0.82169    0.44380    0.40749    1.000
    N4964    N        0.86101    0.46138    0.39926    1.000
    Si4965   Si       0.85558    0.29545    0.53383    1.000
    Si4966   Si       0.84889    0.35589    0.57225    1.000
    N4967    N        0.82782    0.37146    0.53647    1.000
    N4968    N        0.82404    0.35177    0.60669    1.000
    N4969    N        0.83797    0.25973    0.55030    1.000
    N4970    N        0.87159    0.32116    0.56625    1.000
    Si4971   Si       0.83164    0.45990    0.60208    1.000
    N4972    N        0.85561    0.42726    0.50790    1.000
    N4973    N        0.86182    0.46501    0.57174    1.000
    Si4974   Si       0.85199    0.46674    0.53103    1.000
    Si4975   Si       0.86908    0.38772    0.52285    1.000
    N4976    N        0.81241    0.47306    0.51110    1.000
    N4977    N        0.86481    0.50702    0.52075    1.000
    N4978    N        0.81239    0.31541    0.72986    1.000
    N4979    N        0.81636    0.37781    0.73373    1.000
    N4980    N        0.82500    0.37296    0.66826    1.000
    Si4981   Si       0.83106    0.27952    0.65576    1.000
    N4982    N        0.85866    0.31360    0.65621    1.000
    Si4983   Si       0.85170    0.35265    0.64115    1.000
    Si4984   Si       0.83358    0.34786    0.70546    1.000
    N4985    N        0.81804    0.43646    0.69408    1.000
    Si4986   Si       0.84381    0.46865    0.67884    1.000
    Si4987   Si       0.83305    0.41553    0.72831    1.000
    N4988    N        0.84095    0.42113    0.62173    1.000
    N4989    N        0.82775    0.48123    0.63856    1.000
    N4990    N        0.85802    0.35080    0.83681    1.000
    Si4991   Si       0.84274    0.32627    0.80220    1.000
    N4992    N        0.83141    0.28533    0.81338    1.000
    Si4993   Si       0.83396    0.38590    0.84715    1.000
    N4994    N        0.84667    0.41523    0.81837    1.000
    N4995    N        0.83818    0.48141    0.79881    1.000
    Si4996   Si       0.81743    0.44433    0.79958    1.000
    N4997    N        0.82875    0.47199    0.86947    1.000
    Si4998   Si       0.85670    0.36553    0.90846    1.000
    N4999    N        0.85550    0.36954    0.95069    1.000
    N5000    N        0.83139    0.33005    0.89748    1.000
    Si5001   Si       0.83219    0.28927    0.91139    1.000
    N5002    N        0.81700    0.26253    0.88005    1.000
    Si5003   Si       0.85496    0.44273    0.89013    1.000
    N5004    N        0.85066    0.44882    0.93335    1.000
    Si5005   Si       0.82554    0.44739    0.96816    1.000
    N5006    N        0.85137    0.39958    0.88439    1.000
    N5007    N        0.81778    0.40756    0.98739    1.000
    N5008    N        0.83645    0.60735    0.05081    1.000
    N5009    N        0.85118    0.54595    0.02797    1.000
    Si5010   Si       0.82899    0.51317    0.09559    1.000
    N5011    N        0.87002    0.51319    0.08380    1.000
    N5012    N        0.81780    0.63093    0.11741    1.000
    Si5013   Si       0.81559    0.56843    0.04290    1.000
    N5014    N        0.82617    0.67857    0.05772    1.000
    Si5015   Si       0.86834    0.68014    0.04638    1.000
    N5016    N        0.85212    0.73393    0.12045    1.000
    Si5017   Si       0.81333    0.63958    0.07326    1.000
    N5018    N        0.82546    0.51810    0.13883    1.000
    Si5019   Si       0.85612    0.53928    0.16249    1.000
    N5020    N        0.83413    0.57438    0.17156    1.000
    Si5021   Si       0.84219    0.59561    0.20944    1.000
    N5022    N        0.86584    0.63375    0.19783    1.000
    N5023    N        0.81167    0.53406    0.24019    1.000
    Si5024   Si       0.84271    0.73940    0.21553    1.000
    N5025    N        0.81509    0.67252    0.23900    1.000
    Si5026   Si       0.85785    0.70506    0.15184    1.000
    Si5027   Si       0.83869    0.66898    0.20297    1.000
    N5028    N        0.81820    0.68485    0.16342    1.000
    N5029    N        0.86617    0.70442    0.20043    1.000
    N5030    N        0.84655    0.55809    0.29222    1.000
    Si5031   Si       0.85039    0.56051    0.33463    1.000
    N5032    N        0.83129    0.59918    0.34249    1.000
    N5033    N        0.83449    0.52532    0.36005    1.000
    Si5034   Si       0.81537    0.56891    0.26491    1.000
    N5035    N        0.83743    0.73456    0.25795    1.000
    Si5036   Si       0.83719    0.73183    0.33758    1.000
    Si5037   Si       0.82903    0.69463    0.27433    1.000
    N5038    N        0.85876    0.66802    0.28949    1.000
    N5039    N        0.85365    0.67004    0.37199    1.000
    Si5040   Si       0.84831    0.62640    0.37462    1.000
    N5041    N        0.81726    0.62447    0.40535    1.000
    N5042    N        0.82248    0.52539    0.45268    1.000
    N5043    N        0.85948    0.58928    0.44425    1.000
    Si5044   Si       0.85238    0.55321    0.46751    1.000
    Si5045   Si       0.81669    0.60226    0.44209    1.000
    N5046    N        0.81974    0.62956    0.47707    1.000
    Si5047   Si       0.83910    0.66693    0.46011    1.000
    Si5048   Si       0.81671    0.68877    0.38776    1.000
    Si5049   Si       0.86381    0.73002    0.48784    1.000
    N5050    N        0.82506    0.74738    0.48380    1.000
    N5051    N        0.85240    0.68729    0.49812    1.000
    N5052    N        0.81615    0.72986    0.37569    1.000
    Si5053   Si       0.84300    0.53890    0.53968    1.000
    Si5054   Si       0.83019    0.60899    0.51355    1.000
    N5055    N        0.83874    0.62482    0.60657    1.000
    N5056    N        0.83842    0.56714    0.50662    1.000
    N5057    N        0.86746    0.62641    0.52837    1.000
    N5058    N        0.82937    0.67599    0.56312    1.000
    Si5059   Si       0.82368    0.71380    0.58158    1.000
    N5060    N        0.84845    0.72816    0.61377    1.000
    Si5061   Si       0.86145    0.66740    0.53607    1.000
    N5062    N        0.82046    0.74492    0.55181    1.000
    N5063    N        0.83694    0.51088    0.69289    1.000
    Si5064   Si       0.82864    0.58604    0.62565    1.000
    Si5065   Si       0.85794    0.52082    0.73011    1.000
    N5066    N        0.83360    0.60450    0.66451    1.000
    N5067    N        0.85631    0.55291    0.63841    1.000
    Si5068   Si       0.82595    0.52185    0.65206    1.000
    Si5069   Si       0.86581    0.57538    0.67377    1.000
    N5070    N        0.87043    0.56293    0.72005    1.000
    N5071    N        0.86702    0.71862    0.68999    1.000
    N5072    N        0.82179    0.67700    0.65289    1.000
    Si5073   Si       0.84686    0.73111    0.72584    1.000
    Si5074   Si       0.84920    0.64309    0.64630    1.000
    Si5075   Si       0.83828    0.72041    0.65378    1.000
    Si5076   Si       0.81109    0.66136    0.74816    1.000
    N5077    N        0.83868    0.54018    0.82925    1.000
    N5078    N        0.83098    0.53534    0.76071    1.000
    N5079    N        0.82249    0.61661    0.76814    1.000
    Si5080   Si       0.83273    0.57719    0.74983    1.000
    Si5081   Si       0.84132    0.51482    0.86703    1.000
    Si5082   Si       0.86722    0.63183    0.77510    1.000
    Si5083   Si       0.81600    0.51954    0.79810    1.000
    Si5084   Si       0.84597    0.74162    0.84385    1.000
    N5085    N        0.85163    0.67123    0.75841    1.000
    N5086    N        0.86357    0.70668    0.82102    1.000
    N5087    N        0.81766    0.64834    0.83640    1.000
    Si5088   Si       0.87724    0.67233    0.84922    1.000
    N5089    N        0.87156    0.73992    0.76146    1.000
    N5090    N        0.82345    0.62258    0.90353    1.000
    Si5091   Si       0.84289    0.55342    0.93385    1.000
    N5092    N        0.86127    0.52492    0.96068    1.000
    N5093    N        0.82193    0.53405    0.90054    1.000
    Si5094   Si       0.86699    0.62033    0.91344    1.000
    Si5095   Si       0.84006    0.51661    0.99807    1.000
    Si5096   Si       0.81910    0.65783    0.87724    1.000
    Si5097   Si       0.85476    0.67319    0.96763    1.000
    N5098    N        0.85940    0.71243    0.95175    1.000
    Si5099   Si       0.87036    0.71485    0.90988    1.000
    N5100    N        0.85677    0.74944    0.88546    1.000
    N5101    N        0.85309    0.68463    0.88291    1.000
    Si5102   Si       0.85120    0.75009    0.97243    1.000
    N5103    N        0.85397    0.85698    0.08402    1.000
    N5104    N        0.83026    0.82293    0.03432    1.000
    Si5105   Si       0.83305    0.77982    0.04570    1.000
    Si5106   Si       0.86154    0.85173    0.04172    1.000
    Si5107   Si       0.83099    0.83630    0.11561    1.000
    N5108    N        0.85298    0.88412    0.01169    1.000
    N5109    N        0.87050    0.78005    0.06819    1.000
    N5110    N        0.82528    0.76893    0.00326    1.000
    Si5111   Si       0.83380    0.89812    0.08613    1.000
    N5112    N        0.82556    0.94749    0.02016    1.000
    N5113    N        0.85969    0.93191    0.07852    1.000
    Si5114   Si       0.83094    0.00418    0.09305    1.000
    N5115    N        0.86571    0.99209    0.06858    1.000
    Si5116   Si       0.86557    0.95680    0.03839    1.000
    Si5117   Si       0.81559    0.90636    0.01590    1.000
    N5118    N        0.84840    0.83620    0.15480    1.000
    Si5119   Si       0.84352    0.81408    0.19373    1.000
    Si5120   Si       0.85197    0.87911    0.23132    1.000
    N5121    N        0.86377    0.77401    0.20216    1.000
    Si5122   Si       0.86012    0.87805    0.15599    1.000
    N5123    N        0.86759    0.83955    0.22081    1.000
    N5124    N        0.84000    0.96668    0.18837    1.000
    N5125    N        0.85254    0.89891    0.19247    1.000
    N5126    N        0.83750    0.97466    0.12558    1.000
    N5127    N        0.83300    0.90078    0.12962    1.000
    Si5128   Si       0.83267    0.93916    0.15238    1.000
    N5129    N        0.81469    0.00531    0.24687    1.000
    N5130    N        0.85276    0.83443    0.30063    1.000
    N5131    N        0.83513    0.77105    0.31788    1.000
    Si5132   Si       0.86306    0.80314    0.32780    1.000
    Si5133   Si       0.81545    0.83143    0.27664    1.000
    N5134    N        0.86166    0.81806    0.36917    1.000
    N5135    N        0.81409    0.86800    0.25147    1.000
    N5136    N        0.83820    0.91789    0.31741    1.000
    Si5137   Si       0.84817    0.93038    0.27833    1.000
    N5138    N        0.86303    0.99896    0.32856    1.000
    Si5139   Si       0.86991    0.91473    0.34694    1.000
    N5140    N        0.84235    0.78201    0.42504    1.000
    Si5141   Si       0.83144    0.81260    0.39796    1.000
    N5142    N        0.81930    0.84915    0.41760    1.000
    N5143    N        0.84678    0.91185    0.38422    1.000
    Si5144   Si       0.81299    0.88462    0.39382    1.000
    N5145    N        0.83680    0.93427    0.45124    1.000
    Si5146   Si       0.84544    0.94711    0.41083    1.000
    Si5147   Si       0.86826    0.93946    0.48002    1.000
    N5148    N        0.86427    0.98294    0.48895    1.000
    N5149    N        0.85009    0.79505    0.59479    1.000
    N5150    N        0.86329    0.86109    0.56075    1.000
    Si5151   Si       0.82146    0.85354    0.55974    1.000
    Si5152   Si       0.81433    0.78240    0.57218    1.000
    Si5153   Si       0.83886    0.82900    0.62193    1.000
    N5154    N        0.83054    0.92285    0.58716    1.000
    Si5155   Si       0.82454    0.92129    0.54424    1.000
    N5156    N        0.85671    0.91844    0.51696    1.000
    Si5157   Si       0.86535    0.93476    0.61008    1.000
    N5158    N        0.83395    0.87483    0.68282    1.000
    N5159    N        0.82659    0.81471    0.66066    1.000
    N5160    N        0.83587    0.77173    0.71592    1.000
    Si5161   Si       0.85540    0.78963    0.68203    1.000
    N5162    N        0.82485    0.00039    0.69275    1.000
    Si5163   Si       0.82445    0.91708    0.67640    1.000
    N5164    N        0.86031    0.93279    0.65329    1.000
    N5165    N        0.84386    0.83726    0.77906    1.000
    Si5166   Si       0.82811    0.80327    0.80264    1.000
    Si5167   Si       0.81560    0.86379    0.80342    1.000
    N5168    N        0.86112    0.77913    0.82162    1.000
    N5169    N        0.83950    0.89120    0.82784    1.000
    Si5170   Si       0.82686    0.99473    0.79626    1.000
    N5171    N        0.83813    0.98131    0.75619    1.000
    N5172    N        0.82225    0.95796    0.81602    1.000
    Si5173   Si       0.81569    0.92417    0.84147    1.000
    N5174    N        0.85389    0.81828    0.87950    1.000
    N5175    N        0.83587    0.77875    0.94127    1.000
    Si5176   Si       0.86299    0.78757    0.90873    1.000
    N5177    N        0.86600    0.82895    0.97923    1.000
    Si5178   Si       0.82745    0.81250    0.99057    1.000
    Si5179   Si       0.86720    0.87186    0.97292    1.000
    N5180    N        0.82695    0.93370    0.88154    1.000
    N5181    N        0.84146    0.88688    0.94190    1.000
    N5182    N        0.85882    0.00574    0.89472    1.000
    Si5183   Si       0.84142    0.96546    0.90529    1.000
    Si5184   Si       0.83498    0.89474    0.89950    1.000
    N5185    N        0.90412    0.04689    0.07883    1.000
    N5186    N        0.91439    0.10760    0.03942    1.000
    Si5187   Si       0.88947    0.02038    0.04511    1.000
    Si5188   Si       0.88222    0.09527    0.01445    1.000
    Si5189   Si       0.88907    0.03660    0.11678    1.000
    N5190    N        0.87311    0.05204    0.01959    1.000
    N5191    N        0.91215    0.17931    0.04925    1.000
    N5192    N        0.91407    0.25068    0.05284    1.000
    Si5193   Si       0.87316    0.19592    0.05880    1.000
    N5194    N        0.87182    0.21819    0.09897    1.000
    N5195    N        0.90414    0.05840    0.14888    1.000
    Si5196   Si       0.89078    0.05350    0.19195    1.000
    N5197    N        0.89185    0.09468    0.20967    1.000
    N5198    N        0.92635    0.03514    0.20955    1.000
    Si5199   Si       0.92841    0.11791    0.20208    1.000
    N5200    N        0.90675    0.15575    0.19125    1.000
    Si5201   Si       0.89275    0.24280    0.12573    1.000
    Si5202   Si       0.91024    0.18033    0.15462    1.000
    Si5203   Si       0.90950    0.24511    0.19659    1.000
    N5204    N        0.92677    0.21769    0.22645    1.000
    N5205    N        0.90990    0.22144    0.16079    1.000
    Si5206   Si       0.89086    0.20361    0.24633    1.000
    N5207    N        0.89275    0.10251    0.27982    1.000
    N5208    N        0.89329    0.03121    0.27123    1.000
    N5209    N        0.90984    0.13928    0.35993    1.000
    N5210    N        0.90258    0.17084    0.27481    1.000
    Si5211   Si       0.89951    0.22360    0.31316    1.000
    N5212    N        0.88133    0.23652    0.27587    1.000
    N5213    N        0.87676    0.20094    0.34357    1.000
    Si5214   Si       0.87106    0.15888    0.35478    1.000
    Si5215   Si       0.87298    0.14067    0.28247    1.000
    N5216    N        0.91403    0.01672    0.37711    1.000
    Si5217   Si       0.92391    0.05264    0.45393    1.000
    Si5218   Si       0.92331    0.05894    0.38209    1.000
    N5219    N        0.88985    0.08560    0.39313    1.000
    N5220    N        0.89601    0.02294    0.44391    1.000
    N5221    N        0.90617    0.08870    0.47367    1.000
    Si5222   Si       0.89843    0.12866    0.40113    1.000
    N5223    N        0.87963    0.22700    0.40763    1.000
    Si5224   Si       0.89835    0.25266    0.49051    1.000
    Si5225   Si       0.90060    0.18707    0.48651    1.000
    N5226    N        0.92163    0.22124    0.47037    1.000
    N5227    N        0.92902    0.15670    0.49687    1.000
    N5228    N        0.89872    0.11258    0.60458    1.000
    N5229    N        0.88503    0.09173    0.54682    1.000
    N5230    N        0.88070    0.04411    0.60069    1.000
    Si5231   Si       0.87828    0.08777    0.50639    1.000
    Si5232   Si       0.90941    0.12429    0.56405    1.000
    N5233    N        0.88119    0.21629    0.51685    1.000
    N5234    N        0.88460    0.16143    0.55596    1.000
    N5235    N        0.89439    0.22480    0.58873    1.000
    Si5236   Si       0.90139    0.20260    0.55262    1.000
    Si5237   Si       0.92066    0.25309    0.60704    1.000
    N5238    N        0.92163    0.07494    0.65274    1.000
    Si5239   Si       0.91044    0.03827    0.63335    1.000
    N5240    N        0.89817    0.08411    0.71636    1.000
    Si5241   Si       0.89147    0.12381    0.70145    1.000
    N5242    N        0.88242    0.01946    0.66377    1.000
    Si5243   Si       0.92187    0.11771    0.64027    1.000
    N5244    N        0.89889    0.01535    0.74150    1.000
    N5245    N        0.90173    0.22155    0.71651    1.000
    N5246    N        0.92824    0.13921    0.67807    1.000
    Si5247   Si       0.91341    0.22635    0.67425    1.000
    N5248    N        0.88612    0.19956    0.65418    1.000
    N5249    N        0.87994    0.16075    0.71786    1.000
    Si5250   Si       0.90605    0.18599    0.74126    1.000
    N5251    N        0.89729    0.07274    0.78872    1.000
    N5252    N        0.91152    0.03745    0.85417    1.000
    Si5253   Si       0.88516    0.06698    0.83177    1.000
    N5254    N        0.90205    0.10191    0.85118    1.000
    Si5255   Si       0.88569    0.05840    0.74956    1.000
    Si5256   Si       0.92196    0.13842    0.83828    1.000
    N5257    N        0.88927    0.19100    0.78140    1.000
    N5258    N        0.89331    0.17232    0.84374    1.000
    N5259    N        0.91107    0.23752    0.83594    1.000
    Si5260   Si       0.92141    0.21536    0.79925    1.000
    Si5261   Si       0.90108    0.20803    0.86678    1.000
    N5262    N        0.87664    0.25914    0.77076    1.000
    N5263    N        0.88831    0.10317    0.97318    1.000
    Si5264   Si       0.90466    0.09140    0.89310    1.000
    N5265    N        0.90648    0.13122    0.91106    1.000
    Si5266   Si       0.90022    0.00623    0.88333    1.000
    Si5267   Si       0.90086    0.14053    0.95452    1.000
    N5268    N        0.89686    0.23422    0.96482    1.000
    N5269    N        0.86800    0.21829    0.89180    1.000
    N5270    N        0.86933    0.16528    0.97212    1.000
    N5271    N        0.90631    0.31795    0.06830    1.000
    Si5272   Si       0.90100    0.32557    0.02416    1.000
    Si5273   Si       0.91600    0.34934    0.09653    1.000
    N5274    N        0.87553    0.36123    0.01909    1.000
    N5275    N        0.88079    0.29073    0.00731    1.000
    N5276    N        0.92436    0.27045    0.11677    1.000
    Si5277   Si       0.87393    0.25982    0.03689    1.000
    Si5278   Si       0.93059    0.28129    0.07603    1.000
    N5279    N        0.88539    0.38013    0.09333    1.000
    Si5280   Si       0.88210    0.46060    0.01310    1.000
    N5281    N        0.90635    0.46666    0.04889    1.000
    Si5282   Si       0.89640    0.47976    0.08921    1.000
    N5283    N        0.87447    0.44665    0.10660    1.000
    N5284    N        0.91149    0.33605    0.13838    1.000
    Si5285   Si       0.87886    0.35456    0.16046    1.000
    Si5286   Si       0.87683    0.33001    0.24085    1.000
    N5287    N        0.92791    0.28605    0.18766    1.000
    N5288    N        0.92556    0.39408    0.22590    1.000
    N5289    N        0.92170    0.45569    0.17383    1.000
    N5290    N        0.88951    0.39659    0.16287    1.000
    Si5291   Si       0.89589    0.41108    0.12226    1.000
    Si5292   Si       0.90255    0.48618    0.20007    1.000
    Si5293   Si       0.90777    0.41962    0.19439    1.000
    N5294    N        0.88908    0.44765    0.22383    1.000
    N5295    N        0.90532    0.32339    0.33147    1.000
    Si5296   Si       0.92236    0.34976    0.36214    1.000
    Si5297   Si       0.92793    0.33255    0.29198    1.000
    N5298    N        0.91713    0.31708    0.25275    1.000
    N5299    N        0.89622    0.26049    0.33585    1.000
    Si5300   Si       0.87238    0.29733    0.34184    1.000
    Si5301   Si       0.92709    0.47269    0.32642    1.000
    N5302    N        0.88409    0.47263    0.33579    1.000
    Si5303   Si       0.89217    0.46398    0.26295    1.000
    Si5304   Si       0.90365    0.39516    0.26423    1.000
    N5305    N        0.88028    0.42812    0.28513    1.000
    N5306    N        0.92636    0.48129    0.28263    1.000
    N5307    N        0.91934    0.32776    0.46363    1.000
    N5308    N        0.89419    0.37630    0.38010    1.000
    Si5309   Si       0.87680    0.31869    0.47230    1.000
    Si5310   Si       0.89403    0.26712    0.41957    1.000
    Si5311   Si       0.92329    0.35597    0.49890    1.000
    Si5312   Si       0.89107    0.42627    0.47904    1.000
    N5313    N        0.89509    0.46627    0.46474    1.000
    N5314    N        0.92529    0.44159    0.40703    1.000
    N5315    N        0.90156    0.50705    0.39525    1.000
    Si5316   Si       0.89685    0.47019    0.42200    1.000
    N5317    N        0.88239    0.40327    0.44300    1.000
    Si5318   Si       0.91288    0.39997    0.41220    1.000
    Si5319   Si       0.89938    0.50029    0.49441    1.000
    N5320    N        0.89673    0.28672    0.51682    1.000
    Si5321   Si       0.91298    0.30913    0.55224    1.000
    N5322    N        0.87842    0.34932    0.50270    1.000
    Si5323   Si       0.90505    0.47373    0.58136    1.000
    N5324    N        0.91448    0.45781    0.53799    1.000
    N5325    N        0.91370    0.39981    0.50542    1.000
    Si5326   Si       0.91789    0.41352    0.54546    1.000
    N5327    N        0.88230    0.39132    0.56533    1.000
    Si5328   Si       0.88015    0.40842    0.60862    1.000
    N5329    N        0.91454    0.43910    0.61677    1.000
    N5330    N        0.89646    0.50265    0.61409    1.000
    N5331    N        0.90902    0.26069    0.64890    1.000
    N5332    N        0.89984    0.28756    0.71123    1.000
    Si5333   Si       0.89816    0.29827    0.66781    1.000
    N5334    N        0.88816    0.37443    0.63388    1.000
    Si5335   Si       0.89871    0.32240    0.73758    1.000
    Si5336   Si       0.92782    0.36612    0.65353    1.000
    N5337    N        0.87705    0.34866    0.71019    1.000
    N5338    N        0.93128    0.32372    0.65920    1.000
    Si5339   Si       0.90949    0.25864    0.74199    1.000
    N5340    N        0.88684    0.46285    0.67915    1.000
    N5341    N        0.93170    0.39058    0.68928    1.000
    N5342    N        0.87684    0.41719    0.72762    1.000
    Si5343   Si       0.90969    0.47547    0.64583    1.000
    Si5344   Si       0.89917    0.45359    0.72153    1.000
    N5345    N        0.87951    0.48648    0.74213    1.000
    Si5346   Si       0.90246    0.38354    0.72259    1.000
    Si5347   Si       0.89894    0.35041    0.85482    1.000
    N5348    N        0.91254    0.31754    0.83081    1.000
    Si5349   Si       0.92133    0.33272    0.78846    1.000
    N5350    N        0.92283    0.36367    0.75516    1.000
    N5351    N        0.87576    0.32805    0.77436    1.000
    N5352    N        0.93235    0.30040    0.75984    1.000
    Si5353   Si       0.92949    0.27838    0.84270    1.000
    N5354    N        0.91424    0.38863    0.84174    1.000
    Si5355   Si       0.87964    0.48431    0.78529    1.000
    N5356    N        0.90472    0.45052    0.79862    1.000
    Si5357   Si       0.88961    0.42491    0.82954    1.000
    N5358    N        0.89016    0.44986    0.86527    1.000
    N5359    N        0.89764    0.34644    0.89955    1.000
    Si5360   Si       0.88998    0.27847    0.96732    1.000
    N5361    N        0.92158    0.36866    0.96343    1.000
    Si5362   Si       0.90745    0.30410    0.91256    1.000
    N5363    N        0.92336    0.30296    0.95381    1.000
    Si5364   Si       0.88368    0.38468    0.98055    1.000
    N5365    N        0.87146    0.27859    0.92751    1.000
    Si5366   Si       0.92789    0.36972    0.91993    1.000
    N5367    N        0.93032    0.27716    0.88639    1.000
    N5368    N        0.91387    0.47962    0.92543    1.000
    Si5369   Si       0.90821    0.48403    0.88387    1.000
    N5370    N        0.91096    0.48491    0.98934    1.000
    Si5371   Si       0.91863    0.45054    0.96249    1.000
    N5372    N        0.89309    0.42734    0.98602    1.000
    N5373    N        0.89314    0.58050    0.07935    1.000
    N5374    N        0.90020    0.60334    0.01124    1.000
    Si5375   Si       0.88558    0.54486    0.05570    1.000
    N5376    N        0.92297    0.53722    0.03201    1.000
    Si5377   Si       0.88036    0.61065    0.05071    1.000
    Si5378   Si       0.91457    0.58105    0.11783    1.000
    Si5379   Si       0.92869    0.56913    0.00108    1.000
    N5380    N        0.92274    0.74142    0.10666    1.000
    Si5381   Si       0.88198    0.74359    0.08951    1.000
    Si5382   Si       0.91070    0.74025    0.02192    1.000
    N5383    N        0.88764    0.71805    0.05367    1.000
    Si5384   Si       0.90673    0.65298    0.10993    1.000
    N5385    N        0.88723    0.64829    0.07149    1.000
    N5386    N        0.87537    0.66712    0.00571    1.000
    N5387    N        0.87012    0.57232    0.23226    1.000
    N5388    N        0.89296    0.55448    0.14592    1.000
    N5389    N        0.91131    0.61878    0.13797    1.000
    Si5390   Si       0.90990    0.59048    0.24198    1.000
    Si5391   Si       0.90778    0.62884    0.18213    1.000
    Si5392   Si       0.90849    0.69724    0.21433    1.000
    N5393    N        0.92556    0.73768    0.20403    1.000
    N5394    N        0.92786    0.66557    0.18987    1.000
    N5395    N        0.89316    0.68700    0.13352    1.000
    Si5396   Si       0.93265    0.70599    0.12883    1.000
    N5397    N        0.89406    0.56489    0.33823    1.000
    N5398    N        0.90802    0.61438    0.27831    1.000
    N5399    N        0.91891    0.55316    0.27131    1.000
    Si5400   Si       0.91725    0.58094    0.30421    1.000
    Si5401   Si       0.91786    0.58605    0.36757    1.000
    Si5402   Si       0.87539    0.54199    0.26601    1.000
    Si5403   Si       0.89849    0.65691    0.28892    1.000
    N5404    N        0.91276    0.66255    0.33017    1.000
    Si5405   Si       0.89200    0.68732    0.36027    1.000
    N5406    N        0.87902    0.72696    0.34768    1.000
    N5407    N        0.91282    0.68306    0.25528    1.000
    Si5408   Si       0.90993    0.75598    0.35473    1.000
    Si5409   Si       0.89172    0.61710    0.42929    1.000
    N5410    N        0.88649    0.61096    0.38658    1.000
    N5411    N        0.89535    0.53682    0.47023    1.000
    N5412    N        0.88210    0.72482    0.44787    1.000
    N5413    N        0.91942    0.69358    0.39612    1.000
    Si5414   Si       0.90639    0.68919    0.44028    1.000
    N5415    N        0.87766    0.65703    0.44304    1.000
    Si5416   Si       0.88472    0.54508    0.60605    1.000
    Si5417   Si       0.89120    0.59213    0.54532    1.000
    N5418    N        0.91735    0.61579    0.57273    1.000
    N5419    N        0.92497    0.57925    0.52007    1.000
    N5420    N        0.92662    0.55779    0.61292    1.000
    N5421    N        0.86885    0.56281    0.56918    1.000
    N5422    N        0.90956    0.74040    0.59163    1.000
    N5423    N        0.89802    0.68231    0.55280    1.000
    N5424    N        0.89415    0.74265    0.51735    1.000
    Si5425   Si       0.91290    0.72237    0.55167    1.000
    Si5426   Si       0.92998    0.65789    0.56723    1.000
    N5427    N        0.90472    0.59430    0.67300    1.000
    N5428    N        0.90199    0.62737    0.73863    1.000
    Si5429   Si       0.91380    0.63335    0.69330    1.000
    Si5430   Si       0.90222    0.58304    0.74489    1.000
    Si5431   Si       0.90354    0.69420    0.67579    1.000
    N5432    N        0.92708    0.72334    0.65480    1.000
    N5433    N        0.88714    0.65621    0.66403    1.000
    N5434    N        0.90096    0.57278    0.84309    1.000
    Si5435   Si       0.90266    0.61698    0.83992    1.000
    N5436    N        0.90070    0.51975    0.79967    1.000
    Si5437   Si       0.87641    0.55427    0.81103    1.000
    N5438    N        0.87656    0.58698    0.78068    1.000
    N5439    N        0.88023    0.63002    0.87293    1.000
    N5440    N        0.88213    0.64438    0.81376    1.000
    N5441    N        0.91591    0.69070    0.77613    1.000
    N5442    N        0.92261    0.74792    0.81089    1.000
    N5443    N        0.92033    0.68219    0.85158    1.000
    Si5444   Si       0.87287    0.70055    0.77935    1.000
    Si5445   Si       0.92985    0.66045    0.74807    1.000
    Si5446   Si       0.92935    0.70494    0.81550    1.000
    Si5447   Si       0.89788    0.55695    0.88592    1.000
    Si5448   Si       0.90341    0.51337    0.95567    1.000
    N5449    N        0.88138    0.51600    0.88022    1.000
    N5450    N        0.87414    0.57819    0.91542    1.000
    N5451    N        0.91064    0.72569    0.91268    1.000
    N5452    N        0.87941    0.64044    0.94909    1.000
    Si5453   Si       0.90337    0.63849    0.98607    1.000
    N5454    N        0.89091    0.76255    0.98824    1.000
    Si5455   Si       0.90665    0.80192    0.06381    1.000
    N5456    N        0.90299    0.83903    0.04100    1.000
    N5457    N        0.92825    0.80885    0.09896    1.000
    Si5458   Si       0.92606    0.85053    0.11368    1.000
    Si5459   Si       0.87728    0.96318    0.10851    1.000
    N5460    N        0.90395    0.93447    0.02998    1.000
    N5461    N        0.91962    0.94662    0.09959    1.000
    N5462    N        0.87695    0.99201    0.00634    1.000
    Si5463   Si       0.91829    0.98757    0.99781    1.000
    Si5464   Si       0.90625    0.77560    0.21179    1.000
    N5465    N        0.89918    0.87302    0.14053    1.000
    Si5466   Si       0.91035    0.83350    0.22565    1.000
    N5467    N        0.92322    0.81302    0.19080    1.000
    N5468    N        0.88091    0.93463    0.14852    1.000
    N5469    N        0.90073    0.99663    0.12515    1.000
    N5470    N        0.91048    0.94028    0.21257    1.000
    Si5471   Si       0.87248    0.93760    0.19226    1.000
    Si5472   Si       0.91436    0.91207    0.12883    1.000
    N5473    N        0.90369    0.78793    0.32576    1.000
    Si5474   Si       0.88286    0.86672    0.29944    1.000
    N5475    N        0.92259    0.84877    0.29048    1.000
    N5476    N        0.89168    0.87884    0.34179    1.000
    N5477    N        0.91159    0.79674    0.25063    1.000
    Si5478   Si       0.92525    0.80431    0.29105    1.000
    Si5479   Si       0.92869    0.87918    0.36469    1.000
    Si5480   Si       0.90519    0.92791    0.25385    1.000
    Si5481   Si       0.88782    0.99541    0.29338    1.000
    N5482    N        0.90351    0.94053    0.34192    1.000
    Si5483   Si       0.89560    0.98231    0.35394    1.000
    N5484    N        0.92378    0.99117    0.31631    1.000
    N5485    N        0.87961    0.95920    0.27203    1.000
    N5486    N        0.87431    0.89513    0.26555    1.000
    N5487    N        0.87897    0.85751    0.48800    1.000
    Si5488   Si       0.88326    0.76430    0.43192    1.000
    Si5489   Si       0.90589    0.83073    0.46874    1.000
    N5490    N        0.90338    0.77408    0.39430    1.000
    Si5491   Si       0.90193    0.81763    0.38841    1.000
    N5492    N        0.89683    0.78917    0.46440    1.000
    N5493    N        0.89645    0.84356    0.42522    1.000
    Si5494   Si       0.91372    0.88304    0.43994    1.000
    Si5495   Si       0.92102    0.76996    0.49799    1.000
    N5496    N        0.87981    0.96903    0.39718    1.000
    Si5497   Si       0.91068    0.99469    0.41563    1.000
    N5498    N        0.90301    0.92008    0.45694    1.000
    Si5499   Si       0.89470    0.86391    0.59434    1.000
    N5500    N        0.92749    0.80769    0.51499    1.000
    Si5501   Si       0.87644    0.76417    0.60882    1.000
    N5502    N        0.92725    0.83708    0.58680    1.000
    Si5503   Si       0.87906    0.88131    0.52491    1.000
    N5504    N        0.92066    0.88283    0.53979    1.000
    Si5505   Si       0.91601    0.99154    0.58132    1.000
    N5506    N        0.89903    0.90707    0.60298    1.000
    N5507    N        0.87864    0.97670    0.60166    1.000
    N5508    N        0.90698    0.01095    0.54279    1.000
    N5509    N        0.87388    0.85191    0.63109    1.000
    Si5510   Si       0.92232    0.76647    0.66289    1.000
    N5511    N        0.88449    0.82211    0.69431    1.000
    Si5512   Si       0.91663    0.81049    0.72125    1.000
    N5513    N        0.88066    0.77236    0.65102    1.000
    Si5514   Si       0.92466    0.88370    0.72568    1.000
    Si5515   Si       0.87442    0.86002    0.67414    1.000
    N5516    N        0.89843    0.89089    0.69312    1.000
    N5517    N        0.89450    0.96247    0.70638    1.000
    Si5518   Si       0.89739    0.93040    0.67653    1.000
    Si5519   Si       0.90572    0.00350    0.69797    1.000
    N5520    N        0.90413    0.80582    0.76367    1.000
    Si5521   Si       0.88662    0.84530    0.77968    1.000
    N5522    N        0.88834    0.84445    0.82405    1.000
    Si5523   Si       0.88534    0.80792    0.84757    1.000
    Si5524   Si       0.89229    0.76932    0.78683    1.000
    N5525    N        0.92325    0.79678    0.86316    1.000
    N5526    N        0.90442    0.88339    0.76307    1.000
    Si5527   Si       0.87896    0.88136    0.84235    1.000
    N5528    N        0.89797    0.95542    0.78209    1.000
    N5529    N        0.90993    0.90971    0.83144    1.000
    Si5530   Si       0.91662    0.91547    0.79003    1.000
    N5531    N        0.90824    0.97280    0.85391    1.000
    Si5532   Si       0.90049    0.98756    0.81468    1.000
    Si5533   Si       0.92701    0.93635    0.86063    1.000
    Si5534   Si       0.87980    0.97495    0.74739    1.000
    Si5535   Si       0.89981    0.80286    0.97094    1.000
    N5536    N        0.89916    0.79690    0.92837    1.000
    Si5537   Si       0.89529    0.91258    0.91899    1.000
    N5538    N        0.90570    0.88926    0.95755    1.000
    N5539    N        0.87069    0.94627    0.93077    1.000
    N5540    N        0.87819    0.88871    0.88556    1.000
    Si5541   Si       0.91709    0.91754    0.99282    1.000
    N5542    N        0.96553    0.05998    0.04525    1.000
    N5543    N        0.94498    0.09683    0.10343    1.000
    Si5544   Si       0.97250    0.03308    0.01173    1.000
    Si5545   Si       0.93254    0.07779    0.06725    1.000
    Si5546   Si       0.96384    0.13602    0.11110    1.000
    N5547    N        0.96665    0.13945    0.00297    1.000
    N5548    N        0.97056    0.15074    0.06913    1.000
    N5549    N        0.97497    0.22492    0.06262    1.000
    N5550    N        0.95030    0.20828    0.00349    1.000
    Si5551   Si       0.93708    0.14459    0.03897    1.000
    Si5552   Si       0.93782    0.21593    0.04296    1.000
    N5553    N        0.96953    0.04323    0.14564    1.000
    N5554    N        0.95723    0.10373    0.17394    1.000
    Si5555   Si       0.94301    0.07655    0.14186    1.000
    Si5556   Si       0.95616    0.02079    0.18069    1.000
    N5557    N        0.95437    0.12144    0.23944    1.000
    Si5558   Si       0.96926    0.22073    0.23135    1.000
    N5559    N        0.93930    0.16622    0.12803    1.000
    N5560    N        0.95111    0.06315    0.27949    1.000
    Si5561   Si       0.94471    0.12217    0.34406    1.000
    N5562    N        0.94544    0.07760    0.34794    1.000
    Si5563   Si       0.97414    0.06399    0.31637    1.000
    Si5564   Si       0.93562    0.10387    0.27515    1.000
    Si5565   Si       0.93534    0.03269    0.25237    1.000
    N5566    N        0.98962    0.02379    0.32356    1.000
    N5567    N        0.95010    0.13437    0.30339    1.000
    N5568    N        0.94075    0.20781    0.31220    1.000
    Si5569   Si       0.94440    0.17271    0.28614    1.000
    Si5570   Si       0.97431    0.23042    0.32903    1.000
    N5571    N        0.97595    0.18252    0.25419    1.000
    N5572    N        0.95732    0.25801    0.35688    1.000
    Si5573   Si       0.93325    0.12178    0.46927    1.000
    N5574    N        0.97316    0.10372    0.47884    1.000
    N5575    N        0.95040    0.03516    0.48541    1.000
    N5576    N        0.94886    0.05973    0.41910    1.000
    Si5577   Si       0.98508    0.06237    0.48649    1.000
    N5578    N        0.97503    0.13241    0.37510    1.000
    N5579    N        0.93381    0.13781    0.42864    1.000
    Si5580   Si       0.95638    0.23016    0.44527    1.000
    N5581    N        0.98882    0.23563    0.47298    1.000
    Si5582   Si       0.97076    0.15538    0.41356    1.000
    N5583    N        0.96652    0.19870    0.41513    1.000
    N5584    N        0.94010    0.01474    0.60940    1.000
    Si5585   Si       0.98592    0.01225    0.60760    1.000
    N5586    N        0.95202    0.13032    0.55547    1.000
    Si5587   Si       0.98063    0.13523    0.58935    1.000
    Si5588   Si       0.97160    0.21315    0.57642    1.000
    Si5589   Si       0.96070    0.16187    0.52532    1.000
    N5590    N        0.94531    0.19936    0.54485    1.000
    N5591    N        0.95641    0.23191    0.61414    1.000
    N5592    N        0.99185    0.17748    0.59022    1.000
    N5593    N        0.96354    0.12415    0.62849    1.000
    N5594    N        0.97269    0.08797    0.69673    1.000
    N5595    N        0.94284    0.02461    0.69167    1.000
    Si5596   Si       0.98690    0.11424    0.66406    1.000
    Si5597   Si       0.93383    0.06929    0.69312    1.000
    N5598    N        0.94825    0.17028    0.73755    1.000
    N5599    N        0.95527    0.20685    0.67624    1.000
    Si5600   Si       0.97859    0.23513    0.65245    1.000
    Si5601   Si       0.95886    0.16727    0.69560    1.000
    N5602    N        0.96625    0.06640    0.81586    1.000
    Si5603   Si       0.94987    0.03002    0.83467    1.000
    Si5604   Si       0.93961    0.08481    0.78642    1.000
    Si5605   Si       0.94108    0.01601    0.75632    1.000
    N5606    N        0.95057    0.05872    0.75100    1.000
    N5607    N        0.94206    0.12746    0.79773    1.000
    N5608    N        0.98011    0.01165    0.85812    1.000
    N5609    N        0.93396    0.01061    0.79851    1.000
    Si5610   Si       0.96976    0.18634    0.85280    1.000
    Si5611   Si       0.96283    0.16171    0.77972    1.000
    N5612    N        0.95499    0.19067    0.81259    1.000
    N5613    N        0.94013    0.23646    0.76657    1.000
    N5614    N        0.95636    0.14521    0.86483    1.000
    Si5615   Si       0.94672    0.03950    0.94098    1.000
    Si5616   Si       0.97967    0.08851    0.91569    1.000
    N5617    N        0.94258    0.02321    0.98199    1.000
    N5618    N        0.93690    0.07117    0.91294    1.000
    N5619    N        0.97706    0.13168    0.92559    1.000
    N5620    N        0.98756    0.06422    0.94902    1.000
    Si5621   Si       0.93384    0.21264    0.96346    1.000
    N5622    N        0.93523    0.16930    0.95026    1.000
    Si5623   Si       0.95439    0.24302    0.89812    1.000
    N5624    N        0.94131    0.20210    0.88575    1.000
    Si5625   Si       0.94254    0.15468    0.90510    1.000
    N5626    N        0.95831    0.24083    0.94157    1.000
    Si5627   Si       0.97676    0.15377    0.96254    1.000
    N5628    N        0.97314    0.29389    0.06988    1.000
    Si5629   Si       0.97019    0.33428    0.05142    1.000
    N5630    N        0.95729    0.35975    0.08321    1.000
    N5631    N        0.94289    0.33054    0.01585    1.000
    Si5632   Si       0.97338    0.39534    0.10125    1.000
    N5633    N        0.97072    0.47440    0.02453    1.000
    N5634    N        0.93899    0.41690    0.12028    1.000
    Si5635   Si       0.93304    0.49494    0.02657    1.000
    N5636    N        0.98917    0.42255    0.06887    1.000
    N5637    N        0.92883    0.48820    0.11627    1.000
    Si5638   Si       0.93310    0.30077    0.14738    1.000
    N5639    N        0.96977    0.33358    0.21174    1.000
    N5640    N        0.97649    0.31281    0.14379    1.000
    Si5641   Si       0.96609    0.37599    0.22698    1.000
    N5642    N        0.96707    0.26533    0.24398    1.000
    Si5643   Si       0.94662    0.29914    0.22365    1.000
    Si5644   Si       0.94563    0.45587    0.13924    1.000
    N5645    N        0.93537    0.50686    0.22146    1.000
    N5646    N        0.98820    0.45420    0.14946    1.000
    N5647    N        0.95721    0.30108    0.30448    1.000
    N5648    N        0.96173    0.36313    0.34960    1.000
    Si5649   Si       0.98757    0.28150    0.28035    1.000
    Si5650   Si       0.93302    0.28723    0.33756    1.000
    N5651    N        0.93482    0.37681    0.29107    1.000
    N5652    N        0.94937    0.50527    0.34578    1.000
    Si5653   Si       0.95973    0.39497    0.32070    1.000
    N5654    N        0.95056    0.43539    0.33046    1.000
    Si5655   Si       0.99192    0.44006    0.34486    1.000
    N5656    N        0.96776    0.36347    0.49000    1.000
    Si5657   Si       0.96913    0.28618    0.39489    1.000
    Si5658   Si       0.94314    0.33472    0.42807    1.000
    N5659    N        0.93533    0.31659    0.38760    1.000
    N5660    N        0.94715    0.37801    0.42865    1.000
    N5661    N        0.98404    0.32103    0.42830    1.000
    N5662    N        0.93750    0.26282    0.42441    1.000
    Si5663   Si       0.96618    0.44802    0.41579    1.000
    N5664    N        0.96521    0.49397    0.41480    1.000
    N5665    N        0.97582    0.43334    0.45680    1.000
    Si5666   Si       0.97807    0.38887    0.45770    1.000
    Si5667   Si       0.97966    0.28746    0.57874    1.000
    Si5668   Si       0.97831    0.34767    0.53116    1.000
    N5669    N        0.98472    0.30969    0.61611    1.000
    N5670    N        0.93658    0.34299    0.54101    1.000
    N5671    N        0.93555    0.28223    0.57811    1.000
    Si5672   Si       0.95236    0.47949    0.53770    1.000
    N5673    N        0.95394    0.41483    0.56908    1.000
    Si5674   Si       0.95287    0.41904    0.61220    1.000
    N5675    N        0.94653    0.49386    0.57764    1.000
    N5676    N        0.98610    0.45335    0.52543    1.000
    N5677    N        0.95774    0.37738    0.62482    1.000
    Si5678   Si       0.97225    0.30698    0.65816    1.000
    N5679    N        0.98214    0.27107    0.67800    1.000
    N5680    N        0.98537    0.38042    0.73101    1.000
    N5681    N        0.98774    0.44167    0.62563    1.000
    Si5682   Si       0.98589    0.46780    0.66115    1.000
    N5683    N        0.93823    0.44431    0.73230    1.000
    Si5684   Si       0.96447    0.41441    0.71113    1.000
    N5685    N        0.95113    0.49142    0.64741    1.000
    N5686    N        0.96589    0.27334    0.81831    1.000
    N5687    N        0.96344    0.34665    0.80079    1.000
    Si5688   Si       0.96347    0.37529    0.76811    1.000
    Si5689   Si       0.96371    0.27131    0.77266    1.000
    N5690    N        0.98068    0.36840    0.86414    1.000
    Si5691   Si       0.94320    0.45082    0.77436    1.000
    N5692    N        0.96406    0.41493    0.78598    1.000
    N5693    N        0.96118    0.48813    0.78965    1.000
    Si5694   Si       0.95117    0.40131    0.86019    1.000
    N5695    N        0.94140    0.49550    0.85669    1.000
    N5696    N        0.97769    0.43460    0.84394    1.000
    Si5697   Si       0.97821    0.47201    0.86328    1.000
    Si5698   Si       0.95093    0.33299    0.96989    1.000
    N5699    N        0.96251    0.34341    0.92459    1.000
    N5700    N        0.98876    0.31145    0.97375    1.000
    Si5701   Si       0.98470    0.26884    0.96491    1.000
    N5702    N        0.96145    0.44126    0.96280    1.000
    Si5703   Si       0.97529    0.42618    0.92458    1.000
    N5704    N        0.94165    0.40724    0.90316    1.000
    N5705    N        0.95366    0.56151    0.10443    1.000
    Si5706   Si       0.95810    0.51984    0.11751    1.000
    N5707    N        0.96660    0.58906    0.00186    1.000
    N5708    N        0.97977    0.64700    0.04774    1.000
    Si5709   Si       0.96455    0.67465    0.01871    1.000
    N5710    N        0.94691    0.67104    0.10708    1.000
    N5711    N        0.94404    0.71396    0.01400    1.000
    Si5712   Si       0.98413    0.65724    0.08833    1.000
    N5713    N        0.97960    0.52210    0.15678    1.000
    Si5714   Si       0.97575    0.59512    0.20778    1.000
    Si5715   Si       0.97422    0.51698    0.20209    1.000
    N5716    N        0.98677    0.55506    0.22327    1.000
    N5717    N        0.93150    0.60032    0.20744    1.000
    N5718    N        0.96738    0.71180    0.15572    1.000
    Si5719   Si       0.96240    0.74804    0.18175    1.000
    N5720    N        0.97747    0.68809    0.22786    1.000
    Si5721   Si       0.96945    0.67716    0.18576    1.000
    N5722    N        0.98918    0.75706    0.21411    1.000
    N5723    N        0.94786    0.60205    0.33576    1.000
    Si5724   Si       0.94336    0.51610    0.26257    1.000
    N5725    N        0.98283    0.52101    0.28368    1.000
    Si5726   Si       0.98787    0.51196    0.32546    1.000
    N5727    N        0.94807    0.73734    0.34847    1.000
    N5728    N        0.96622    0.64933    0.28785    1.000
    Si5729   Si       0.95376    0.64562    0.32921    1.000
    Si5730   Si       0.95544    0.68326    0.26491    1.000
    N5731    N        0.97570    0.67410    0.35600    1.000
    Si5732   Si       0.97120    0.74798    0.31376    1.000
    N5733    N        0.97242    0.71964    0.28210    1.000
    Si5734   Si       0.94094    0.51761    0.38591    1.000
    N5735    N        0.96226    0.54816    0.45443    1.000
    Si5736   Si       0.96185    0.58030    0.42558    1.000
    N5737    N        0.94493    0.56099    0.39091    1.000
    N5738    N        0.97693    0.61682    0.48932    1.000
    Si5739   Si       0.93431    0.54910    0.48776    1.000
    N5740    N        0.93474    0.61245    0.43542    1.000
    Si5741   Si       0.96100    0.71003    0.49625    1.000
    N5742    N        0.98404    0.72348    0.40962    1.000
    N5743    N        0.93999    0.68137    0.46896    1.000
    N5744    N        0.95622    0.75132    0.47947    1.000
    Si5745   Si       0.96028    0.64298    0.45969    1.000
    Si5746   Si       0.95778    0.70736    0.38038    1.000
    Si5747   Si       0.94654    0.58917    0.59203    1.000
    N5748    N        0.97600    0.58142    0.56217    1.000
    Si5749   Si       0.95003    0.51832    0.61310    1.000
    Si5750   Si       0.95970    0.60596    0.52975    1.000
    N5751    N        0.94041    0.51017    0.50732    1.000
    N5752    N        0.99084    0.53744    0.61109    1.000
    N5753    N        0.97986    0.73558    0.59644    1.000
    N5754    N        0.96532    0.64828    0.54339    1.000
    N5755    N        0.95346    0.71800    0.53638    1.000
    N5756    N        0.94628    0.67580    0.60358    1.000
    Si5757   Si       0.94292    0.72052    0.61355    1.000
    Si5758   Si       0.99204    0.72918    0.55386    1.000
    N5759    N        0.95882    0.61203    0.62760    1.000
    Si5760   Si       0.93826    0.58031    0.64972    1.000
    Si5761   Si       0.96879    0.58237    0.71044    1.000
    N5762    N        0.95715    0.62330    0.69924    1.000
    N5763    N        0.94116    0.56974    0.74139    1.000
    N5764    N        0.96870    0.55885    0.67463    1.000
    Si5765   Si       0.97482    0.65205    0.62730    1.000
    N5766    N        0.98344    0.67692    0.66162    1.000
    Si5767   Si       0.97649    0.66214    0.70398    1.000
    N5768    N        0.92839    0.67685    0.70762    1.000
    N5769    N        0.96000    0.55338    0.82006    1.000
    N5770    N        0.94364    0.62046    0.85174    1.000
    Si5771   Si       0.94537    0.57621    0.85309    1.000
    Si5772   Si       0.93953    0.51454    0.81803    1.000
    N5773    N        0.97318    0.69644    0.81399    1.000
    N5774    N        0.97717    0.73547    0.76022    1.000
    N5775    N        0.96516    0.73718    0.86835    1.000
    Si5776   Si       0.98690    0.69417    0.77314    1.000
    N5777    N        0.97388    0.65651    0.75215    1.000
    Si5778   Si       0.94760    0.65710    0.87475    1.000
    Si5779   Si       0.96587    0.55264    0.92931    1.000
    N5780    N        0.94159    0.56170    0.89305    1.000
    Si5781   Si       0.98581    0.61530    0.96849    1.000
    N5782    N        0.93163    0.54692    0.96048    1.000
    Si5783   Si       0.97663    0.72565    0.98555    1.000
    N5784    N        0.98924    0.66844    0.87473    1.000
    Si5785   Si       0.95079    0.73670    0.91037    1.000
    N5786    N        0.94759    0.65258    0.98308    1.000
    Si5787   Si       0.96115    0.67260    0.94694    1.000
    N5788    N        0.93591    0.65936    0.91476    1.000
    N5789    N        0.96985    0.71678    0.94396    1.000
    Si5790   Si       0.97377    0.78227    0.03822    1.000
    N5791    N        0.97581    0.82499    0.03572    1.000
    Si5792   Si       0.95191    0.77304    0.10821    1.000
    Si5793   Si       0.94029    0.84503    0.01957    1.000
    N5794    N        0.98591    0.77158    0.08093    1.000
    N5795    N        0.98574    0.76540    0.00024    1.000
    N5796    N        0.93110    0.77452    0.04210    1.000
    N5797    N        0.94600    0.88820    0.01138    1.000
    N5798    N        0.97280    0.99258    0.09920    1.000
    Si5799   Si       0.96707    0.98116    0.05862    1.000
    N5800    N        0.97166    0.93815    0.05842    1.000
    N5801    N        0.93223    0.88639    0.08858    1.000
    Si5802   Si       0.99032    0.89502    0.00135    1.000
    N5803    N        0.92932    0.99856    0.03972    1.000
    Si5804   Si       0.93110    0.92166    0.06200    1.000
    N5805    N        0.93589    0.86629    0.23264    1.000
    Si5806   Si       0.96259    0.81734    0.16905    1.000
    N5807    N        0.96187    0.77948    0.15014    1.000
    N5808    N        0.96183    0.85246    0.14001    1.000
    N5809    N        0.95108    0.98116    0.16631    1.000
    Si5810   Si       0.93802    0.98015    0.12332    1.000
    Si5811   Si       0.94675    0.94511    0.18834    1.000
    Si5812   Si       0.98083    0.88996    0.14224    1.000
    N5813    N        0.98582    0.95034    0.21031    1.000
    N5814    N        0.94993    0.91750    0.15347    1.000
    N5815    N        0.96504    0.78751    0.29735    1.000
    Si5816   Si       0.95020    0.87473    0.27183    1.000
    N5817    N        0.99102    0.87710    0.28208    1.000
    N5818    N        0.96007    0.89413    0.34039    1.000
    Si5819   Si       0.96503    0.99485    0.30442    1.000
    N5820    N        0.97795    0.95718    0.32296    1.000
    Si5821   Si       0.94193    0.93141    0.32240    1.000
    N5822    N        0.96123    0.99789    0.26098    1.000
    N5823    N        0.93507    0.91587    0.28252    1.000
    N5824    N        0.93849    0.83653    0.37513    1.000
    Si5825   Si       0.98201    0.83117    0.37912    1.000
    N5826    N        0.94161    0.85912    0.46599    1.000
    Si5827   Si       0.97653    0.85042    0.49037    1.000
    N5828    N        0.99149    0.81131    0.47758    1.000
    N5829    N        0.93634    0.89676    0.40382    1.000
    N5830    N        0.97728    0.92456    0.45207    1.000
    Si5831   Si       0.93857    0.94798    0.45787    1.000
    Si5832   Si       0.97799    0.90652    0.41224    1.000
    N5833    N        0.94866    0.97648    0.42510    1.000
    Si5834   Si       0.99160    0.97765    0.41307    1.000
    N5835    N        0.93386    0.96897    0.49368    1.000
    N5836    N        0.97527    0.85232    0.53619    1.000
    Si5837   Si       0.96000    0.81956    0.60928    1.000
    Si5838   Si       0.93346    0.83864    0.54274    1.000
    N5839    N        0.96574    0.89900    0.59464    1.000
    Si5840   Si       0.97494    0.96008    0.55593    1.000
    Si5841   Si       0.96099    0.89331    0.54934    1.000
    N5842    N        0.97432    0.99892    0.53650    1.000
    N5843    N        0.93847    0.95532    0.57701    1.000
    Si5844   Si       0.93581    0.92660    0.60909    1.000
    N5845    N        0.98464    0.92503    0.53056    1.000
    Si5846   Si       0.93824    0.00563    0.51313    1.000
    N5847    N        0.94450    0.84316    0.72116    1.000
    N5848    N        0.94342    0.79029    0.63640    1.000
    N5849    N        0.93349    0.77301    0.70522    1.000
    Si5850   Si       0.97196    0.75900    0.72263    1.000
    N5851    N        0.98593    0.79455    0.74461    1.000
    N5852    N        0.98725    0.84563    0.63043    1.000
    Si5853   Si       0.98838    0.83454    0.72791    1.000
    N5854    N        0.93332    0.93839    0.65318    1.000
    N5855    N        0.95656    0.91316    0.71915    1.000
    Si5856   Si       0.96643    0.92840    0.68007    1.000
    N5857    N        0.97404    0.99459    0.73919    1.000
    Si5858   Si       0.98456    0.00365    0.69392    1.000
    N5859    N        0.97098    0.86094    0.84535    1.000
    N5860    N        0.97354    0.78823    0.81858    1.000
    Si5861   Si       0.94575    0.76671    0.84126    1.000
    Si5862   Si       0.99017    0.77241    0.78176    1.000
    N5863    N        0.97090    0.93833    0.85284    1.000
    N5864    N        0.96036    0.91136    0.78856    1.000
    Si5865   Si       0.97791    0.90112    0.82672    1.000
    Si5866   Si       0.98409    0.90688    0.75355    1.000
    N5867    N        0.94772    0.84850    0.91249    1.000
    Si5868   Si       0.98318    0.85711    0.88774    1.000
    N5869    N        0.96330    0.77817    0.91784    1.000
    Si5870   Si       0.94288    0.86264    0.95362    1.000
    Si5871   Si       0.93499    0.80698    0.90590    1.000
    N5872    N        0.93384    0.82760    0.97965    1.000
    N5873    N        0.98731    0.87018    0.96513    1.000
    N5874    N        0.92775    0.00348    0.91848    1.000
    Si5875   Si       0.97832    0.93150    0.89587    1.000
    N5876    N        0.93114    0.95333    0.97362    1.000
    N5877    N        0.98374    0.95869    0.92756    1.000
    N5878    N        0.93321    0.93108    0.90345    1.000
    Si5879   Si       0.94157    0.96427    0.93317    1.000
