# CIF file generated by openbabel 3.1.1, see https://openbabel.org
data_I
_chemical_name_common '3.01-16.aims'
_cell_length_a 39.8588
_cell_length_b 39.8588
_cell_length_c 39.8588
_cell_angle_alpha 90
_cell_angle_beta 90
_cell_angle_gamma 90
loop_
    _atom_site_label
    _atom_site_type_symbol
    _atom_site_fract_x
    _atom_site_fract_y
    _atom_site_fract_z
    _atom_site_occupancy
    N0       N        0.01323    0.06721    0.03614    1.000
    N1       N        0.01707    0.11786    0.09059    1.000
    Si2      Si       0.00983    0.11117    0.04676    1.000
    Si3      Si       0.02080    0.08079    0.11561    1.000
    N4       N        0.98883    0.11463    0.99599    1.000
    Si5      Si       0.00365    0.21271    0.08351    1.000
    N6       N        0.03466    0.18571    0.06851    1.000
    Si7      Si       0.04545    0.15201    0.09311    1.000
    N8       N        0.01718    0.22686    0.12175    1.000
    N9       N        0.02335    0.18127    0.99734    1.000
    N10      N        0.02746    0.00986    0.20302    1.000
    N11      N        0.02605    0.10238    0.15558    1.000
    N12      N        0.04322    0.12218    0.22717    1.000
    Si13     Si       0.99548    0.02148    0.23146    1.000
    Si14     Si       0.00187    0.13460    0.22731    1.000
    N15      N        0.99661    0.17396    0.24548    1.000
    Si16     Si       0.03584    0.23171    0.22287    1.000
    Si17     Si       0.00605    0.21028    0.16008    1.000
    N18      N        0.99705    0.24479    0.23834    1.000
    N19      N        0.04090    0.20507    0.18660    1.000
    Si20     Si       0.99907    0.13804    0.14409    1.000
    N21      N        0.03449    0.16287    0.13414    1.000
    N22      N        0.01156    0.03566    0.26864    1.000
    Si23     Si       0.00011    0.07342    0.28414    1.000
    N24      N        0.03723    0.09167    0.29501    1.000
    Si25     Si       0.03411    0.12359    0.32469    1.000
    N26      N        0.01767    0.10781    0.36424    1.000
    N27      N        0.00274    0.04781    0.36258    1.000
    Si28     Si       0.04592    0.01291    0.28447    1.000
    Si29     Si       0.02682    0.18450    0.27413    1.000
    N30      N        0.00046    0.20549    0.30204    1.000
    N31      N        0.01509    0.17793    0.36866    1.000
    N32      N        0.99369    0.14050    0.31461    1.000
    Si33     Si       0.98781    0.17990    0.33477    1.000
    Si34     Si       0.03620    0.07235    0.38032    1.000
    N35      N        0.03466    0.02953    0.48742    1.000
    Si36     Si       0.01799    0.11026    0.44088    1.000
    N37      N        0.02917    0.07255    0.42300    1.000
    Si38     Si       0.02821    0.03466    0.44477    1.000
    N39      N        0.02580    0.10534    0.48350    1.000
    N40      N        0.98987    0.01320    0.43553    1.000
    N41      N        0.03131    0.24015    0.49596    1.000
    Si42     Si       0.99706    0.20285    0.40094    1.000
    Si43     Si       0.01271    0.20856    0.47143    1.000
    N44      N        0.02657    0.21319    0.43082    1.000
    N45      N        0.04158    0.14414    0.42333    1.000
    N46      N        0.02782    0.17071    0.48756    1.000
    N47      N        0.02284    0.09451    0.54434    1.000
    N48      N        0.00997    0.05396    0.60043    1.000
    Si49     Si       0.03377    0.06937    0.50907    1.000
    Si50     Si       0.99612    0.01375    0.59613    1.000
    Si51     Si       0.99300    0.08636    0.57468    1.000
    N52      N        0.99127    0.01075    0.55089    1.000
    Si53     Si       0.02174    0.13653    0.51771    1.000
    N54      N        0.02123    0.17814    0.60512    1.000
    N55      N        0.03745    0.23440    0.56626    1.000
    N56      N        0.99087    0.24590    0.61640    1.000
    Si57     Si       0.99089    0.25692    0.50120    1.000
    Si58     Si       0.04304    0.06535    0.62424    1.000
    N59      N        0.02661    0.08375    0.65923    1.000
    N60      N        0.01442    0.10048    0.72454    1.000
    N61      N        0.99628    0.03787    0.69660    1.000
    Si62     Si       0.02641    0.06824    0.69989    1.000
    Si63     Si       0.99345    0.11111    0.64654    1.000
    N64      N        0.00604    0.14630    0.66787    1.000
    N65      N        0.99209    0.24189    0.73891    1.000
    N66      N        0.01283    0.17605    0.73202    1.000
    N67      N        0.01396    0.21133    0.67312    1.000
    Si68     Si       0.02284    0.13990    0.70835    1.000
    Si69     Si       0.03000    0.17908    0.64914    1.000
    Si70     Si       0.02124    0.24665    0.64832    1.000
    Si71     Si       0.99624    0.20871    0.71097    1.000
    N72      N        0.00267    0.06583    0.78333    1.000
    Si73     Si       0.02432    0.05181    0.81913    1.000
    N74      N        0.02067    0.07974    0.85147    1.000
    Si75     Si       0.02516    0.09889    0.76797    1.000
    N76      N        0.00236    0.01808    0.83642    1.000
    N77      N        0.01025    0.13511    0.78703    1.000
    N78      N        0.02786    0.21085    0.79279    1.000
    Si79     Si       0.02682    0.17232    0.77385    1.000
    Si80     Si       0.02638    0.24585    0.76374    1.000
    N81      N        0.99474    0.18986    0.85892    1.000
    Si82     Si       0.03646    0.18202    0.87249    1.000
    Si83     Si       0.02016    0.08738    0.97818    1.000
    N84      N        0.03968    0.11475    0.94796    1.000
    Si85     Si       0.01676    0.01624    0.87917    1.000
    N86      N        0.99593    0.05181    0.97051    1.000
    N87      N        0.99484    0.04435    0.90114    1.000
    Si88     Si       0.98873    0.15649    0.98885    1.000
    Si89     Si       0.01236    0.13328    0.92208    1.000
    N90      N        0.03228    0.24512    0.96341    1.000
    N91      N        0.03680    0.20784    0.90870    1.000
    N92      N        0.03702    0.14078    0.88800    1.000
    N93      N        0.99384    0.16666    0.94524    1.000
    Si94     Si       0.02786    0.19894    0.95471    1.000
    N95      N        0.03326    0.35392    0.01494    1.000
    N96      N        0.00597    0.28901    0.01402    1.000
    Si97     Si       0.00611    0.27801    0.05628    1.000
    Si98     Si       0.99782    0.33131    0.02663    1.000
    Si99     Si       0.03961    0.26294    0.11657    1.000
    N100     N        0.04494    0.27008    0.07431    1.000
    Si101    Si       0.01711    0.39260    0.10477    1.000
    Si102    Si       0.00904    0.45624    0.02454    1.000
    N103     N        0.04284    0.47780    0.03787    1.000
    N104     N        0.99848    0.41344    0.02319    1.000
    Si105    Si       0.03709    0.39383    0.03311    1.000
    N106     N        0.01871    0.50305    0.09834    1.000
    N107     N        0.04661    0.38833    0.07535    1.000
    N108     N        0.00868    0.35607    0.12695    1.000
    N109     N        0.01423    0.29557    0.12902    1.000
    Si110    Si       0.02986    0.30784    0.21483    1.000
    Si111    Si       0.03893    0.33024    0.14225    1.000
    N112     N        0.03493    0.48466    0.23641    1.000
    N113     N        0.02498    0.42306    0.13415    1.000
    N114     N        0.03314    0.40973    0.22994    1.000
    N115     N        0.03964    0.48572    0.16237    1.000
    Si116    Si       0.01119    0.44759    0.23200    1.000
    N117     N        0.00894    0.27273    0.30280    1.000
    N118     N        0.99802    0.30408    0.36472    1.000
    N119     N        0.99733    0.37099    0.36135    1.000
    Si120    Si       0.01230    0.37857    0.25097    1.000
    N121     N        0.02952    0.33832    0.24666    1.000
    N122     N        0.01085    0.38581    0.29585    1.000
    N123     N        0.03759    0.45855    0.36119    1.000
    Si124    Si       0.02103    0.46375    0.32170    1.000
    N125     N        0.03467    0.50526    0.30990    1.000
    N126     N        0.99891    0.33339    0.42447    1.000
    N127     N        0.03529    0.27815    0.41906    1.000
    Si128    Si       0.01860    0.26909    0.38065    1.000
    Si129    Si       0.01283    0.33829    0.38474    1.000
    Si130    Si       0.01848    0.30353    0.44995    1.000
    N131     N        0.00970    0.37480    0.47681    1.000
    Si132    Si       0.04638    0.35592    0.49419    1.000
    N133     N        0.03970    0.43403    0.48889    1.000
    N134     N        0.01829    0.47719    0.42083    1.000
    Si135    Si       0.01843    0.44082    0.39863    1.000
    Si136    Si       0.00126    0.41544    0.49101    1.000
    Si137    Si       0.99421    0.47839    0.45679    1.000
    N138     N        0.00542    0.50633    0.48793    1.000
    N139     N        0.02336    0.30431    0.58095    1.000
    Si140    Si       0.00489    0.33841    0.59959    1.000
    N141     N        0.04077    0.36280    0.60670    1.000
    Si142    Si       0.00768    0.26425    0.57682    1.000
    N143     N        0.03519    0.40961    0.55268    1.000
    Si144    Si       0.01377    0.46860    0.59736    1.000
    N145     N        0.02270    0.47134    0.54674    1.000
    Si146    Si       0.99260    0.40650    0.56029    1.000
    N147     N        0.99909    0.50843    0.59551    1.000
    N148     N        0.03415    0.28326    0.66837    1.000
    Si149    Si       0.00907    0.31962    0.66989    1.000
    N150     N        0.03143    0.38039    0.73191    1.000
    N151     N        0.04679    0.34367    0.67040    1.000
    N152     N        0.02079    0.44116    0.70685    1.000
    Si153    Si       0.04098    0.44820    0.66703    1.000
    N154     N        0.00604    0.46053    0.64545    1.000
    Si155    Si       0.02644    0.27613    0.83822    1.000
    N156     N        0.03264    0.27796    0.79336    1.000
    Si157    Si       0.03632    0.38658    0.80371    1.000
    N158     N        0.01983    0.49246    0.78852    1.000
    Si159    Si       0.00850    0.42991    0.85094    1.000
    N160     N        0.99812    0.40517    0.81795    1.000
    N161     N        0.04935    0.42533    0.78080    1.000
    N162     N        0.02048    0.35656    0.89080    1.000
    Si163    Si       0.01846    0.28420    0.97324    1.000
    N164     N        0.02329    0.28046    0.89832    1.000
    Si165    Si       0.04501    0.35449    0.97150    1.000
    N166     N        0.00903    0.37950    0.95751    1.000
    N167     N        0.01492    0.49921    0.89858    1.000
    Si168    Si       0.99006    0.46479    0.89682    1.000
    N169     N        0.01120    0.42606    0.89619    1.000
    Si170    Si       0.00370    0.38660    0.91402    1.000
    N171     N        0.00598    0.47132    0.98472    1.000
    Si172    Si       0.03311    0.59518    0.08584    1.000
    N173     N        0.01720    0.56208    0.06424    1.000
    Si174    Si       0.02869    0.51946    0.05748    1.000
    N175     N        0.01767    0.62825    0.06532    1.000
    N176     N        0.99034    0.51966    0.03093    1.000
    Si177    Si       0.01864    0.75176    0.04699    1.000
    N178     N        0.01403    0.65924    0.01041    1.000
    N179     N        0.01008    0.68713    0.11567    1.000
    N180     N        0.04724    0.72079    0.03309    1.000
    Si181    Si       0.04592    0.63570    0.03052    1.000
    Si182    Si       0.03679    0.69510    0.99894    1.000
    N183     N        0.01484    0.59004    0.12535    1.000
    Si184    Si       0.01115    0.62274    0.22284    1.000
    Si185    Si       0.03320    0.60418    0.15989    1.000
    N186     N        0.01163    0.59080    0.19484    1.000
    N187     N        0.99084    0.52230    0.19742    1.000
    Si188    Si       0.03350    0.50525    0.19896    1.000
    N189     N        0.02935    0.64614    0.16098    1.000
    Si190    Si       0.99101    0.66160    0.14472    1.000
    Si191    Si       0.99974    0.75404    0.23007    1.000
    N192     N        0.04873    0.64486    0.22359    1.000
    Si193    Si       0.03012    0.53476    0.34094    1.000
    N194     N        0.01201    0.61633    0.26820    1.000
    Si195    Si       0.01085    0.57866    0.28789    1.000
    N196     N        0.01936    0.54548    0.26077    1.000
    N197     N        0.03820    0.57278    0.32255    1.000
    Si198    Si       0.04796    0.51359    0.26921    1.000
    N199     N        0.99267    0.53005    0.36325    1.000
    N200     N        0.04171    0.68209    0.28031    1.000
    Si201    Si       0.02788    0.73540    0.35762    1.000
    N202     N        0.00065    0.70754    0.33446    1.000
    N203     N        0.02149    0.73777    0.26456    1.000
    Si204    Si       0.00322    0.70796    0.29197    1.000
    Si205    Si       0.04784    0.64190    0.26769    1.000
    Si206    Si       0.03744    0.61766    0.38410    1.000
    Si207    Si       0.00681    0.54811    0.46976    1.000
    N208     N        0.01399    0.54557    0.42825    1.000
    N209     N        0.99625    0.59664    0.38005    1.000
    Si210    Si       0.04060    0.51389    0.41324    1.000
    N211     N        0.02886    0.57803    0.49061    1.000
    N212     N        0.02338    0.64704    0.48857    1.000
    Si213    Si       0.03242    0.73122    0.43839    1.000
    N214     N        0.01689    0.72143    0.39766    1.000
    Si215    Si       0.00276    0.65096    0.44975    1.000
    N216     N        0.03277    0.64488    0.41645    1.000
    N217     N        0.00138    0.75029    0.46216    1.000
    Si218    Si       0.03030    0.54065    0.59286    1.000
    Si219    Si       0.02587    0.61223    0.51608    1.000
    N220     N        0.01539    0.58084    0.59600    1.000
    N221     N        0.04334    0.53352    0.55194    1.000
    Si222    Si       0.04337    0.61719    0.59248    1.000
    Si223    Si       0.01289    0.50994    0.53197    1.000
    N224     N        0.01042    0.64304    0.60781    1.000
    N225     N        0.01245    0.71111    0.57969    1.000
    Si226    Si       0.99569    0.73649    0.54661    1.000
    N227     N        0.04575    0.70839    0.52070    1.000
    Si228    Si       0.98850    0.67849    0.59704    1.000
    N229     N        0.02785    0.55149    0.70860    1.000
    Si230    Si       0.04971    0.75382    0.72828    1.000
    N231     N        0.01216    0.75859    0.70371    1.000
    N232     N        0.99014    0.64695    0.68653    1.000
    Si233    Si       0.02463    0.63886    0.71152    1.000
    N234     N        0.04430    0.67679    0.71918    1.000
    Si235    Si       0.01912    0.75453    0.65908    1.000
    N236     N        0.01808    0.70836    0.65949    1.000
    N237     N        0.00360    0.61395    0.81715    1.000
    N238     N        0.01975    0.55963    0.77479    1.000
    Si239    Si       0.03682    0.61476    0.84504    1.000
    Si240    Si       0.02640    0.52845    0.81023    1.000
    N241     N        0.01201    0.62390    0.75077    1.000
    N242     N        0.04194    0.57817    0.86980    1.000
    N243     N        0.98945    0.53850    0.83392    1.000
    Si244    Si       0.02856    0.52499    0.74525    1.000
    N245     N        0.04155    0.72819    0.76237    1.000
    N246     N        0.03435    0.71428    0.83755    1.000
    Si247    Si       0.03446    0.74185    0.80441    1.000
    Si248    Si       0.00746    0.64717    0.78832    1.000
    Si249    Si       0.01099    0.69284    0.86788    1.000
    N250     N        0.04673    0.66752    0.79052    1.000
    N251     N        0.99297    0.75530    0.80694    1.000
    N252     N        0.04257    0.65452    0.86051    1.000
    Si253    Si       0.01263    0.53973    0.87467    1.000
    N254     N        0.03924    0.56994    0.94342    1.000
    Si255    Si       0.99567    0.56402    0.94070    1.000
    Si256    Si       0.01638    0.51151    0.99472    1.000
    N257     N        0.02289    0.65441    0.92225    1.000
    N258     N        0.01351    0.71972    0.97042    1.000
    Si259    Si       0.00716    0.69228    0.93753    1.000
    N260     N        0.00850    0.71824    0.90358    1.000
    Si261    Si       0.99562    0.75867    0.91341    1.000
    Si262    Si       0.00933    0.81689    0.08692    1.000
    N263     N        0.03446    0.78153    0.07609    1.000
    N264     N        0.03230    0.83459    0.02858    1.000
    N265     N        0.02590    0.85922    0.09118    1.000
    N266     N        0.00721    0.76826    0.00758    1.000
    Si267    Si       0.99033    0.83873    0.02161    1.000
    N268     N        0.01355    0.93097    0.09585    1.000
    Si269    Si       0.03550    0.98834    0.02763    1.000
    Si270    Si       0.02004    0.97572    0.09972    1.000
    Si271    Si       0.02158    0.89258    0.11667    1.000
    N272     N        0.03990    0.94521    0.02827    1.000
    N273     N        0.99360    0.00133    0.02352    1.000
    N274     N        0.04579    0.99578    0.06967    1.000
    N275     N        0.99934    0.80967    0.12842    1.000
    Si276    Si       0.01259    0.77655    0.15275    1.000
    N277     N        0.99858    0.87968    0.15417    1.000
    Si278    Si       0.04308    0.87453    0.17359    1.000
    N279     N        0.00524    0.85199    0.24485    1.000
    N280     N        0.02352    0.76134    0.19457    1.000
    N281     N        0.04085    0.98603    0.13778    1.000
    Si282    Si       0.00727    0.89070    0.23047    1.000
    Si283    Si       0.01000    0.99196    0.16689    1.000
    N284     N        0.99266    0.95443    0.17754    1.000
    N285     N        0.04665    0.89425    0.21138    1.000
    Si286    Si       0.01768    0.81532    0.34767    1.000
    Si287    Si       0.03226    0.83247    0.27338    1.000
    N288     N        0.01175    0.80890    0.30421    1.000
    N289     N        0.03281    0.77745    0.36315    1.000
    N290     N        0.04543    0.84942    0.34944    1.000
    Si291    Si       0.04660    0.88498    0.32373    1.000
    Si292    Si       0.03371    0.93869    0.28626    1.000
    Si293    Si       0.00590    0.93974    0.35221    1.000
    N294     N        0.01165    0.91403    0.31534    1.000
    N295     N        0.01810    0.97854    0.29937    1.000
    N296     N        0.01147    0.97880    0.36908    1.000
    N297     N        0.00980    0.93042    0.24924    1.000
    Si298    Si       0.00639    0.00970    0.33884    1.000
    Si299    Si       0.04694    0.79155    0.40577    1.000
    N300     N        0.01637    0.81982    0.41688    1.000
    Si301    Si       0.02731    0.84683    0.45129    1.000
    N302     N        0.00955    0.82033    0.48083    1.000
    Si303    Si       0.99544    0.78197    0.49177    1.000
    N304     N        0.00627    0.88378    0.44523    1.000
    N305     N        0.02551    0.91588    0.37916    1.000
    N306     N        0.03189    0.95513    0.43015    1.000
    Si307    Si       0.00098    0.98154    0.41053    1.000
    Si308    Si       0.00950    0.91944    0.42052    1.000
    Si309    Si       0.00200    0.86959    0.53519    1.000
    Si310    Si       0.03456    0.81268    0.54296    1.000
    N311     N        0.03536    0.81560    0.58738    1.000
    Si312    Si       0.99545    0.83513    0.59475    1.000
    N313     N        0.02042    0.76769    0.52667    1.000
    N314     N        0.99834    0.87930    0.58009    1.000
    N315     N        0.04344    0.85759    0.52864    1.000
    N316     N        0.99336    0.82624    0.54667    1.000
    N317     N        0.01044    0.91385    0.52185    1.000
    Si318    Si       0.02327    0.90958    0.60231    1.000
    Si319    Si       0.01030    0.99925    0.51382    1.000
    N320     N        0.02535    0.98657    0.61976    1.000
    N321     N        0.04679    0.97603    0.51993    1.000
    N322     N        0.00053    0.84555    0.64027    1.000
    Si323    Si       0.03669    0.86088    0.65633    1.000
    Si324    Si       0.00808    0.85854    0.71829    1.000
    N325     N        0.04495    0.84638    0.69834    1.000
    N326     N        0.03878    0.98290    0.72280    1.000
    N327     N        0.99130    0.95837    0.67680    1.000
    N328     N        0.04258    0.90101    0.64047    1.000
    Si329    Si       0.00058    0.99448    0.70437    1.000
    N330     N        0.02104    0.87078    0.75819    1.000
    N331     N        0.99394    0.88113    0.86679    1.000
    N332     N        0.00162    0.93819    0.76881    1.000
    Si333    Si       0.00317    0.89880    0.78588    1.000
    N334     N        0.03851    0.89830    0.81280    1.000
    Si335    Si       0.04215    0.95705    0.75929    1.000
    Si336    Si       0.03768    0.89677    0.86019    1.000
    N337     N        0.03520    0.81442    0.87346    1.000
    N338     N        0.03212    0.84740    0.93317    1.000
    N339     N        0.02720    0.77859    0.93339    1.000
    Si340    Si       0.03319    0.75986    0.97144    1.000
    Si341    Si       0.05011    0.81126    0.91639    1.000
    Si342    Si       0.99435    0.90734    0.98582    1.000
    N343     N        0.00702    0.97627    0.89190    1.000
    N344     N        0.02906    0.91173    0.90724    1.000
    Si345    Si       0.04451    0.95242    0.89797    1.000
    N346     N        0.03645    0.90276    0.97660    1.000
    N347     N        0.08327    0.04481    0.04845    1.000
    Si348    Si       0.07120    0.02643    0.08614    1.000
    N349     N        0.05911    0.06352    0.10588    1.000
    Si350    Si       0.09560    0.09039    0.10909    1.000
    Si351    Si       0.05543    0.07162    0.03023    1.000
    Si352    Si       0.09773    0.01568    0.02029    1.000
    N353     N        0.05330    0.11507    0.03649    1.000
    N354     N        0.08793    0.13166    0.09035    1.000
    Si355    Si       0.09224    0.13282    0.04675    1.000
    N356     N        0.08770    0.17273    0.03242    1.000
    N357     N        0.06570    0.23363    0.02069    1.000
    N358     N        0.10750    0.23558    0.06966    1.000
    Si359    Si       0.04913    0.19181    0.02828    1.000
    N360     N        0.07433    0.06982    0.20845    1.000
    Si361    Si       0.06746    0.02490    0.21161    1.000
    Si362    Si       0.05590    0.10468    0.18872    1.000
    N363     N        0.09268    0.01285    0.17732    1.000
    N364     N        0.08313    0.13859    0.17485    1.000
    N365     N        0.09424    0.19059    0.13000    1.000
    Si366    Si       0.06693    0.17660    0.16034    1.000
    Si367    Si       0.10558    0.23131    0.13609    1.000
    Si368    Si       0.08907    0.04097    0.34246    1.000
    Si369    Si       0.06126    0.11406    0.26583    1.000
    Si370    Si       0.09999    0.11408    0.35779    1.000
    N371     N        0.10163    0.09919    0.26340    1.000
    N372     N        0.07686    0.07708    0.36249    1.000
    N373     N        0.05330    0.02245    0.32627    1.000
    N374     N        0.06968    0.14382    0.34639    1.000
    Si375    Si       0.08998    0.22471    0.27795    1.000
    Si376    Si       0.08678    0.17067    0.31326    1.000
    N377     N        0.08135    0.21351    0.32335    1.000
    Si378    Si       0.08481    0.23177    0.36324    1.000
    N379     N        0.05313    0.15172    0.28686    1.000
    N380     N        0.05491    0.21196    0.25527    1.000
    Si381    Si       0.10730    0.03236    0.41701    1.000
    N382     N        0.06289    0.01703    0.42556    1.000
    Si383    Si       0.10983    0.22364    0.48739    1.000
    Si384    Si       0.06001    0.16086    0.46073    1.000
    Si385    Si       0.05182    0.15924    0.38225    1.000
    N386     N        0.09464    0.13520    0.46668    1.000
    N387     N        0.08681    0.19653    0.45817    1.000
    N388     N        0.09256    0.25274    0.41027    1.000
    N389     N        0.07952    0.19525    0.38753    1.000
    Si390    Si       0.06899    0.21975    0.42615    1.000
    N391     N        0.07409    0.07053    0.52444    1.000
    Si392    Si       0.06806    0.10129    0.55516    1.000
    N393     N        0.06407    0.09556    0.59854    1.000
    Si394    Si       0.05291    0.20656    0.59531    1.000
    N395     N        0.06173    0.14455    0.53858    1.000
    N396     N        0.08873    0.18437    0.58544    1.000
    N397     N        0.09064    0.21174    0.52414    1.000
    Si398    Si       0.09508    0.17207    0.54310    1.000
    Si399    Si       0.05949    0.24013    0.52949    1.000
    Si400    Si       0.10397    0.17011    0.62283    1.000
    Si401    Si       0.09308    0.07507    0.73641    1.000
    N402     N        0.06717    0.03180    0.64049    1.000
    Si403    Si       0.08976    0.05354    0.67007    1.000
    N404     N        0.06757    0.05864    0.70605    1.000
    N405     N        0.09596    0.09516    0.65729    1.000
    Si406    Si       0.09176    0.13493    0.67656    1.000
    N407     N        0.07089    0.16280    0.64982    1.000
    Si408    Si       0.10226    0.23647    0.64118    1.000
    Si409    Si       0.09325    0.14637    0.74317    1.000
    N410     N        0.06592    0.13970    0.71060    1.000
    N411     N        0.06042    0.22920    0.63066    1.000
    Si412    Si       0.10078    0.22627    0.72596    1.000
    N413     N        0.06021    0.23371    0.73764    1.000
    N414     N        0.06749    0.09035    0.76928    1.000
    N415     N        0.07595    0.11059    0.83233    1.000
    N416     N        0.06639    0.03934    0.81407    1.000
    Si417    Si       0.08807    0.07523    0.80418    1.000
    Si418    Si       0.05266    0.10398    0.86643    1.000
    N419     N        0.06870    0.15961    0.77681    1.000
    Si420    Si       0.08332    0.14864    0.81640    1.000
    N421     N        0.06613    0.17992    0.84091    1.000
    Si422    Si       0.06343    0.21631    0.81992    1.000
    N423     N        0.10051    0.22520    0.79975    1.000
    N424     N        0.04956    0.24125    0.85308    1.000
    N425     N        0.06072    0.01612    0.87247    1.000
    N426     N        0.05963    0.06949    0.98825    1.000
    Si427    Si       0.09620    0.05980    0.96903    1.000
    N428     N        0.09136    0.03161    0.93701    1.000
    N429     N        0.07518    0.08366    0.89708    1.000
    Si430    Si       0.08730    0.04219    0.89572    1.000
    Si431    Si       0.07869    0.11374    0.92859    1.000
    N432     N        0.07427    0.19508    0.96035    1.000
    Si433    Si       0.05130    0.24698    0.89603    1.000
    Si434    Si       0.07204    0.23478    0.97878    1.000
    N435     N        0.10354    0.25959    0.96566    1.000
    N436     N        0.09944    0.29449    0.02746    1.000
    Si437    Si       0.08540    0.37140    0.09092    1.000
    Si438    Si       0.07952    0.26320    0.04984    1.000
    Si439    Si       0.07693    0.45220    0.03381    1.000
    N440     N        0.06829    0.41714    0.01078    1.000
    N441     N        0.10391    0.48073    0.01410    1.000
    N442     N        0.10103    0.40165    0.12083    1.000
    N443     N        0.07742    0.46717    0.11783    1.000
    N444     N        0.07801    0.33884    0.12150    1.000
    Si445    Si       0.08716    0.33416    0.20271    1.000
    Si446    Si       0.08475    0.26787    0.18165    1.000
    N447     N        0.09587    0.37430    0.20319    1.000
    N448     N        0.09160    0.31891    0.24321    1.000
    N449     N        0.07697    0.26468    0.13573    1.000
    N450     N        0.05180    0.26996    0.20843    1.000
    N451     N        0.04773    0.33056    0.18271    1.000
    N452     N        0.10363    0.42885    0.24616    1.000
    Si453    Si       0.05619    0.44688    0.15055    1.000
    Si454    Si       0.07594    0.41026    0.21782    1.000
    Si455    Si       0.05270    0.50494    0.12630    1.000
    N456     N        0.08265    0.42957    0.17936    1.000
    Si457    Si       0.07696    0.34579    0.34584    1.000
    Si458    Si       0.06380    0.33493    0.27120    1.000
    N459     N        0.08154    0.26930    0.29025    1.000
    N460     N        0.07836    0.37610    0.27862    1.000
    N461     N        0.05678    0.32434    0.31339    1.000
    N462     N        0.05604    0.26766    0.35764    1.000
    Si463    Si       0.05069    0.28187    0.31642    1.000
    N464     N        0.06897    0.38820    0.34498    1.000
    Si465    Si       0.07717    0.48121    0.36070    1.000
    N466     N        0.10372    0.44615    0.36889    1.000
    N467     N        0.10544    0.49333    0.32923    1.000
    Si468    Si       0.05143    0.39815    0.30419    1.000
    N469     N        0.04820    0.44028    0.29996    1.000
    Si470    Si       0.07175    0.29413    0.39990    1.000
    N471     N        0.05623    0.33099    0.38125    1.000
    Si472    Si       0.08561    0.29565    0.49058    1.000
    N473     N        0.07867    0.37856    0.47489    1.000
    N474     N        0.10584    0.31339    0.42217    1.000
    N475     N        0.05146    0.31563    0.47564    1.000
    N476     N        0.10956    0.26286    0.47190    1.000
    Si477    Si       0.09765    0.48488    0.46799    1.000
    Si478    Si       0.06489    0.41774    0.45665    1.000
    N479     N        0.07644    0.50508    0.43371    1.000
    Si480    Si       0.08010    0.41229    0.38160    1.000
    N481     N        0.05188    0.41814    0.41621    1.000
    N482     N        0.10218    0.44245    0.46504    1.000
    N483     N        0.09661    0.32553    0.58638    1.000
    N484     N        0.07468    0.28162    0.53128    1.000
    Si485    Si       0.06322    0.31275    0.56009    1.000
    Si486    Si       0.05779    0.37661    0.56823    1.000
    N487     N        0.05140    0.34674    0.53705    1.000
    N488     N        0.09310    0.39458    0.58393    1.000
    Si489    Si       0.08804    0.43821    0.59299    1.000
    N490     N        0.09257    0.45043    0.55204    1.000
    N491     N        0.05925    0.46680    0.60705    1.000
    N492     N        0.08090    0.49815    0.50596    1.000
    Si493    Si       0.05474    0.44528    0.53028    1.000
    N494     N        0.06402    0.31492    0.72869    1.000
    Si495    Si       0.06433    0.37082    0.64151    1.000
    Si496    Si       0.06872    0.30945    0.68610    1.000
    Si497    Si       0.06368    0.35429    0.74541    1.000
    N498     N        0.09946    0.37827    0.74297    1.000
    N499     N        0.06458    0.41299    0.65374    1.000
    Si500    Si       0.08849    0.48613    0.70901    1.000
    Si501    Si       0.07966    0.49829    0.63163    1.000
    N502     N        0.06753    0.48232    0.66985    1.000
    N503     N        0.08543    0.44267    0.72216    1.000
    Si504    Si       0.04751    0.42137    0.73576    1.000
    Si505    Si       0.06281    0.30938    0.80002    1.000
    N506     N        0.05702    0.30739    0.84430    1.000
    N507     N        0.10438    0.29749    0.79569    1.000
    Si508    Si       0.05446    0.34563    0.86876    1.000
    N509     N        0.05758    0.38323    0.84340    1.000
    N510     N        0.05144    0.34895    0.78607    1.000
    Si511    Si       0.08007    0.41806    0.85520    1.000
    N512     N        0.09241    0.48069    0.79769    1.000
    Si513    Si       0.05188    0.46176    0.80190    1.000
    N514     N        0.04931    0.45000    0.84566    1.000
    Si515    Si       0.09571    0.29713    0.87353    1.000
    N516     N        0.05430    0.31066    0.97217    1.000
    Si517    Si       0.10056    0.36986    0.91584    1.000
    N518     N        0.07966    0.37426    0.95646    1.000
    N519     N        0.09114    0.26463    0.90182    1.000
    Si520    Si       0.09463    0.29729    0.98533    1.000
    N521     N        0.09035    0.33754    0.89106    1.000
    N522     N        0.09079    0.41009    0.89734    1.000
    Si523    Si       0.05171    0.48381    0.87717    1.000
    N524     N        0.08900    0.47903    0.90024    1.000
    Si525    Si       0.09556    0.40715    0.97765    1.000
    N526     N        0.07578    0.59750    0.08589    1.000
    N527     N        0.07511    0.53037    0.06260    1.000
    Si528    Si       0.09078    0.55639    0.09230    1.000
    Si529    Si       0.08939    0.52040    0.02371    1.000
    N530     N        0.05884    0.60252    0.00740    1.000
    Si531    Si       0.09833    0.63600    0.08054    1.000
    N532     N        0.05475    0.53140    0.99860    1.000
    N533     N        0.06411    0.71826    0.09661    1.000
    Si534    Si       0.07607    0.70054    0.05828    1.000
    N535     N        0.07661    0.65868    0.04894    1.000
    N536     N        0.08424    0.65426    0.11894    1.000
    N537     N        0.07885    0.53881    0.13182    1.000
    Si538    Si       0.08929    0.55650    0.17083    1.000
    N539     N        0.06635    0.53345    0.20049    1.000
    N540     N        0.07590    0.59707    0.16482    1.000
    Si541    Si       0.10200    0.52979    0.22463    1.000
    Si542    Si       0.10103    0.63146    0.15240    1.000
    Si543    Si       0.05703    0.67075    0.19016    1.000
    N544     N        0.05661    0.70629    0.16360    1.000
    Si545    Si       0.05159    0.68717    0.12565    1.000
    N546     N        0.10133    0.66035    0.18462    1.000
    N547     N        0.07628    0.71082    0.22131    1.000
    Si548    Si       0.06179    0.74079    0.18972    1.000
    Si549    Si       0.06962    0.60317    0.32468    1.000
    N550     N        0.08003    0.62098    0.28638    1.000
    N551     N        0.08897    0.52488    0.26486    1.000
    N552     N        0.10410    0.57755    0.33570    1.000
    Si553    Si       0.09030    0.55528    0.37086    1.000
    N554     N        0.05505    0.63805    0.34822    1.000
    N555     N        0.08908    0.73770    0.28102    1.000
    N556     N        0.06744    0.71668    0.34639    1.000
    Si557    Si       0.09649    0.74260    0.32564    1.000
    Si558    Si       0.07678    0.67421    0.35125    1.000
    Si559    Si       0.05911    0.71651    0.26119    1.000
    N560     N        0.06062    0.52342    0.37256    1.000
    N561     N        0.06946    0.58839    0.39406    1.000
    Si562    Si       0.09817    0.59998    0.42415    1.000
    N563     N        0.08877    0.63575    0.44589    1.000
    Si564    Si       0.05534    0.67765    0.49134    1.000
    N565     N        0.05447    0.69703    0.45340    1.000
    N566     N        0.09867    0.67154    0.39004    1.000
    Si567    Si       0.06884    0.66690    0.42299    1.000
    Si568    Si       0.08243    0.52798    0.53727    1.000
    N569     N        0.05574    0.62087    0.54959    1.000
    N570     N        0.10023    0.56494    0.52253    1.000
    N571     N        0.06073    0.53603    0.62242    1.000
    Si572    Si       0.09253    0.64607    0.54645    1.000
    N573     N        0.07854    0.67432    0.57866    1.000
    N574     N        0.07170    0.74091    0.56733    1.000
    N575     N        0.09235    0.66338    0.50630    1.000
    Si576    Si       0.06173    0.75297    0.52514    1.000
    Si577    Si       0.05071    0.70323    0.56354    1.000
    Si578    Si       0.09821    0.67871    0.61804    1.000
    N579     N        0.09779    0.74592    0.50077    1.000
    N580     N        0.07164    0.61043    0.62552    1.000
    Si581    Si       0.08720    0.57051    0.63139    1.000
    Si582    Si       0.06463    0.57585    0.70628    1.000
    N583     N        0.09597    0.56725    0.67593    1.000
    Si584    Si       0.08371    0.62964    0.66324    1.000
    N585     N        0.05487    0.61623    0.69171    1.000
    N586     N        0.06915    0.50847    0.74056    1.000
    N587     N        0.10591    0.72347    0.62094    1.000
    Si588    Si       0.05315    0.69737    0.68228    1.000
    N589     N        0.07197    0.73413    0.69417    1.000
    Si590    Si       0.08869    0.74769    0.65651    1.000
    N591     N        0.07668    0.67222    0.65500    1.000
    Si592    Si       0.07648    0.55129    0.84961    1.000
    N593     N        0.07032    0.60804    0.81893    1.000
    N594     N        0.06865    0.54459    0.80272    1.000
    Si595    Si       0.05778    0.58344    0.78243    1.000
    Si596    Si       0.09357    0.51853    0.77638    1.000
    N597     N        0.08092    0.58369    0.74836    1.000
    N598     N        0.04627    0.51719    0.84982    1.000
    N599     N        0.10136    0.69556    0.83151    1.000
    Si600    Si       0.06144    0.67924    0.82971    1.000
    Si601    Si       0.06249    0.68919    0.75608    1.000
    N602     N        0.10472    0.68957    0.75456    1.000
    Si603    Si       0.06342    0.57924    0.90940    1.000
    N604     N        0.08895    0.54742    0.89788    1.000
    N605     N        0.08237    0.61837    0.91279    1.000
    Si606    Si       0.06694    0.57129    0.97970    1.000
    N607     N        0.10603    0.58114    0.96484    1.000
    N608     N        0.09096    0.68661    0.90283    1.000
    Si609    Si       0.05993    0.65395    0.90133    1.000
    N610     N        0.06768    0.68501    0.97184    1.000
    Si611    Si       0.10124    0.68671    0.94569    1.000
    N612     N        0.08761    0.83326    0.08215    1.000
    Si613    Si       0.05703    0.85272    0.05863    1.000
    Si614    Si       0.06664    0.76231    0.09946    1.000
    N615     N        0.10728    0.77038    0.08582    1.000
    N616     N        0.10096    0.00377    0.10731    1.000
    N617     N        0.06729    0.89257    0.04610    1.000
    N618     N        0.08315    0.94111    0.09144    1.000
    Si619    Si       0.06372    0.91578    0.00689    1.000
    Si620    Si       0.05075    0.92781    0.06648    1.000
    N621     N        0.06538    0.00027    0.99622    1.000
    N622     N        0.05225    0.83370    0.17856    1.000
    N623     N        0.05589    0.77650    0.14018    1.000
    Si624    Si       0.07965    0.80278    0.16659    1.000
    N625     N        0.09124    0.77216    0.19347    1.000
    Si626    Si       0.09434    0.91660    0.12704    1.000
    Si627    Si       0.08412    0.98614    0.14373    1.000
    Si628    Si       0.08059    0.91288    0.23401    1.000
    N629     N        0.05999    0.89440    0.13844    1.000
    N630     N        0.10514    0.94742    0.21915    1.000
    N631     N        0.10970    0.88313    0.24293    1.000
    N632     N        0.07069    0.81373    0.25965    1.000
    Si633    Si       0.09658    0.78172    0.27364    1.000
    Si634    Si       0.09460    0.85234    0.26691    1.000
    N635     N        0.05747    0.86889    0.28553    1.000
    N636     N        0.09818    0.78487    0.32057    1.000
    N637     N        0.07709    0.94122    0.27450    1.000
    N638     N        0.07798    0.91340    0.33586    1.000
    Si639    Si       0.09965    0.97409    0.25170    1.000
    Si640    Si       0.10540    0.93436    0.31025    1.000
    N641     N        0.07266    0.00913    0.25094    1.000
    Si642    Si       0.08237    0.85068    0.37522    1.000
    N643     N        0.08086    0.81777    0.40250    1.000
    N644     N        0.06827    0.85608    0.46075    1.000
    Si645    Si       0.10041    0.83347    0.43933    1.000
    N646     N        0.06392    0.76074    0.43494    1.000
    Si647    Si       0.09936    0.76132    0.45924    1.000
    N648     N        0.10720    0.80270    0.46719    1.000
    N649     N        0.08288    0.88621    0.39957    1.000
    N650     N        0.08972    0.95901    0.39078    1.000
    Si651    Si       0.10501    0.93534    0.48187    1.000
    Si652    Si       0.07030    0.92164    0.37827    1.000
    Si653    Si       0.07042    0.97485    0.42539    1.000
    Si654    Si       0.07021    0.00085    0.49286    1.000
    N655     N        0.08651    0.97033    0.46574    1.000
    N656     N        0.07461    0.79831    0.52855    1.000
    Si657    Si       0.06687    0.80510    0.61537    1.000
    Si658    Si       0.07256    0.86972    0.49998    1.000
    N659     N        0.10493    0.79553    0.59617    1.000
    Si660    Si       0.09400    0.93833    0.58532    1.000
    N661     N        0.09095    0.97951    0.59841    1.000
    N662     N        0.07923    0.91190    0.50924    1.000
    N663     N        0.05342    0.92649    0.57369    1.000
    Si664    Si       0.04772    0.93389    0.53079    1.000
    N665     N        0.10917    0.91614    0.62091    1.000
    Si666    Si       0.07432    0.82969    0.72439    1.000
    N667     N        0.07238    0.84075    0.63876    1.000
    N668     N        0.05556    0.76972    0.64095    1.000
    N669     N        0.06593    0.79216    0.74403    1.000
    Si670    Si       0.10752    0.85089    0.66482    1.000
    Si671    Si       0.07694    0.96649    0.70823    1.000
    N672     N        0.09678    0.88869    0.68391    1.000
    Si673    Si       0.06660    0.98873    0.63230    1.000
    Si674    Si       0.08021    0.91866    0.65262    1.000
    N675     N        0.06911    0.93033    0.73570    1.000
    Si676    Si       0.09605    0.89565    0.72719    1.000
    N677     N        0.07476    0.96065    0.66495    1.000
    Si678    Si       0.07938    0.79659    0.78738    1.000
    Si679    Si       0.06975    0.83020    0.85035    1.000
    N680     N        0.05782    0.82876    0.80825    1.000
    Si681    Si       0.05461    0.86553    0.78502    1.000
    N682     N        0.07364    0.76066    0.81023    1.000
    N683     N        0.08407    0.86130    0.75185    1.000
    N684     N        0.07160    0.86892    0.87098    1.000
    Si685    Si       0.06696    0.93214    0.81744    1.000
    N686     N        0.05520    0.96891    0.79820    1.000
    Si687    Si       0.07120    0.99970    0.83143    1.000
    N688     N        0.06040    0.93700    0.85995    1.000
    N689     N        0.10699    0.91936    0.80933    1.000
    Si690    Si       0.10283    0.86047    0.90028    1.000
    N691     N        0.09173    0.81674    0.90444    1.000
    N692     N        0.07624    0.76652    0.97903    1.000
    N693     N        0.09193    0.87952    0.93848    1.000
    Si694    Si       0.04750    0.88607    0.93904    1.000
    N695     N        0.10311    0.92539    0.99132    1.000
    Si696    Si       0.08552    0.99398    0.95769    1.000
    N697     N        0.06974    0.96585    0.92840    1.000
    N698     N        0.13179    0.07457    0.08597    1.000
    Si699    Si       0.13598    0.07129    0.04161    1.000
    N700     N        0.12370    0.11151    0.02759    1.000
    N701     N        0.12345    0.04539    0.00144    1.000
    Si702    Si       0.16034    0.05166    0.11061    1.000
    N703     N        0.14615    0.21912    0.01708    1.000
    N704     N        0.13665    0.17739    0.07285    1.000
    Si705    Si       0.11792    0.16099    0.10886    1.000
    Si706    Si       0.11562    0.20163    0.04383    1.000
    N707     N        0.13689    0.10944    0.20681    1.000
    Si708    Si       0.11963    0.04674    0.17379    1.000
    N709     N        0.13336    0.04605    0.21679    1.000
    Si710    Si       0.12272    0.12007    0.16787    1.000
    N711     N        0.15546    0.03509    0.15049    1.000
    Si712    Si       0.11129    0.08106    0.22572    1.000
    N713     N        0.10731    0.08163    0.14865    1.000
    Si714    Si       0.15883    0.01109    0.22936    1.000
    N715     N        0.11667    0.24341    0.24424    1.000
    N716     N        0.14424    0.24530    0.12528    1.000
    N717     N        0.14477    0.14146    0.13522    1.000
    Si718    Si       0.14483    0.23533    0.20754    1.000
    N719     N        0.10943    0.23191    0.18019    1.000
    Si720    Si       0.13069    0.08328    0.29143    1.000
    N721     N        0.12817    0.11207    0.32463    1.000
    N722     N        0.11917    0.04399    0.30973    1.000
    N723     N        0.13163    0.17104    0.34734    1.000
    Si724    Si       0.15347    0.20962    0.33687    1.000
    N725     N        0.14890    0.23728    0.30336    1.000
    Si726    Si       0.15092    0.20524    0.27231    1.000
    N727     N        0.12851    0.23684    0.36382    1.000
    Si728    Si       0.15736    0.14419    0.32356    1.000
    N729     N        0.11242    0.18514    0.28052    1.000
    Si730    Si       0.11470    0.11208    0.43553    1.000
    N731     N        0.15454    0.12896    0.45449    1.000
    N732     N        0.11343    0.07095    0.43131    1.000
    N733     N        0.10999    0.13085    0.39736    1.000
    N734     N        0.10926    0.02074    0.37507    1.000
    N735     N        0.14650    0.17988    0.42337    1.000
    Si736    Si       0.11946    0.17371    0.38958    1.000
    N737     N        0.14703    0.20112    0.48591    1.000
    Si738    Si       0.12647    0.16763    0.46059    1.000
    N739     N        0.13426    0.03768    0.55771    1.000
    Si740    Si       0.14516    0.11667    0.54274    1.000
    N741     N        0.14233    0.08845    0.50944    1.000
    Si742    Si       0.11515    0.05790    0.52402    1.000
    N743     N        0.11222    0.09896    0.56539    1.000
    N744     N        0.14084    0.06779    0.61860    1.000
    Si745    Si       0.16000    0.06309    0.58103    1.000
    N746     N        0.10670    0.02309    0.49946    1.000
    Si747    Si       0.10642    0.09720    0.61121    1.000
    N748     N        0.12738    0.13487    0.61889    1.000
    Si749    Si       0.14815    0.22588    0.59947    1.000
    N750     N        0.13506    0.15858    0.53656    1.000
    Si751    Si       0.16063    0.19326    0.52655    1.000
    N752     N        0.16072    0.22507    0.55705    1.000
    N753     N        0.11945    0.25902    0.60838    1.000
    Si754    Si       0.15541    0.06046    0.65792    1.000
    Si755    Si       0.15929    0.10967    0.71661    1.000
    Si756    Si       0.13493    0.01641    0.71993    1.000
    N757     N        0.11744    0.11158    0.73408    1.000
    N758     N        0.12864    0.03697    0.68190    1.000
    Si759    Si       0.15013    0.17707    0.71333    1.000
    N760     N        0.11752    0.18928    0.73843    1.000
    Si761    Si       0.15596    0.13603    0.64917    1.000
    N762     N        0.13126    0.20291    0.63294    1.000
    N763     N        0.13062    0.15337    0.68261    1.000
    N764     N        0.10738    0.24007    0.68531    1.000
    N765     N        0.13118    0.08390    0.80019    1.000
    Si766    Si       0.14812    0.12232    0.81425    1.000
    N767     N        0.14532    0.12092    0.85754    1.000
    Si768    Si       0.15345    0.06168    0.77135    1.000
    Si769    Si       0.15377    0.07895    0.86928    1.000
    N770     N        0.12128    0.04348    0.74819    1.000
    N771     N        0.12517    0.15741    0.80346    1.000
    Si772    Si       0.12675    0.19359    0.78200    1.000
    N773     N        0.16143    0.21827    0.78818    1.000
    N774     N        0.12496    0.04536    0.87356    1.000
    Si775    Si       0.13410    0.11989    0.98597    1.000
    N776     N        0.15888    0.09283    0.90978    1.000
    Si777    Si       0.15663    0.02097    0.98539    1.000
    Si778    Si       0.14145    0.13196    0.89962    1.000
    N779     N        0.10793    0.09861    0.95779    1.000
    N780     N        0.13438    0.16146    0.97551    1.000
    Si781    Si       0.16438    0.18537    0.99179    1.000
    N782     N        0.13194    0.21020    0.92070    1.000
    Si783    Si       0.12419    0.25387    0.92601    1.000
    Si784    Si       0.10851    0.17834    0.94276    1.000
    N785     N        0.10400    0.14672    0.91463    1.000
    Si786    Si       0.13296    0.31624    0.05055    1.000
    N787     N        0.11753    0.29680    0.08915    1.000
    N788     N        0.16141    0.28016    0.04959    1.000
    Si789    Si       0.14021    0.25952    0.08434    1.000
    Si790    Si       0.14220    0.38397    0.03671    1.000
    N791     N        0.11440    0.35925    0.06088    1.000
    Si792    Si       0.14217    0.46022    0.03797    1.000
    N793     N        0.16309    0.42089    0.04786    1.000
    N794     N        0.15800    0.49234    0.06677    1.000
    N795     N        0.16115    0.46599    0.99490    1.000
    Si796    Si       0.11016    0.44228    0.10500    1.000
    N797     N        0.10690    0.44428    0.06253    1.000
    Si798    Si       0.15298    0.31047    0.17991    1.000
    N799     N        0.15310    0.32505    0.13743    1.000
    Si800    Si       0.11051    0.31128    0.12945    1.000
    N801     N        0.10822    0.30367    0.17733    1.000
    N802     N        0.14913    0.45102    0.11939    1.000
    N803     N        0.15005    0.39721    0.16968    1.000
    Si804    Si       0.13391    0.45956    0.24315    1.000
    Si805    Si       0.16232    0.39321    0.21301    1.000
    N806     N        0.13315    0.49859    0.22413    1.000
    Si807    Si       0.10888    0.39716    0.16348    1.000
    N808     N        0.15037    0.30071    0.27123    1.000
    N809     N        0.11901    0.34068    0.33979    1.000
    N810     N        0.15148    0.37787    0.26002    1.000
    Si811    Si       0.15919    0.33153    0.34805    1.000
    Si812    Si       0.11099    0.28429    0.26209    1.000
    Si813    Si       0.16463    0.26000    0.37259    1.000
    Si814    Si       0.12872    0.38488    0.34678    1.000
    Si815    Si       0.11644    0.39868    0.27380    1.000
    N816     N        0.14197    0.47112    0.28359    1.000
    Si817    Si       0.12774    0.45477    0.32923    1.000
    N818     N        0.12580    0.41142    0.31366    1.000
    N819     N        0.14137    0.36846    0.44902    1.000
    Si820    Si       0.12734    0.34935    0.41209    1.000
    N821     N        0.16246    0.27246    0.41419    1.000
    Si822    Si       0.11863    0.36613    0.48611    1.000
    Si823    Si       0.12440    0.27495    0.43085    1.000
    N824     N        0.16594    0.33450    0.39287    1.000
    Si825    Si       0.13812    0.43474    0.48861    1.000
    N826     N        0.11310    0.38430    0.38833    1.000
    N827     N        0.13609    0.50440    0.45520    1.000
    Si828    Si       0.16582    0.50696    0.49162    1.000
    Si829    Si       0.12752    0.29782    0.59302    1.000
    Si830    Si       0.11970    0.36323    0.59740    1.000
    N831     N        0.15521    0.36449    0.57279    1.000
    Si832    Si       0.15638    0.31115    0.51580    1.000
    N833     N        0.15868    0.29855    0.55930    1.000
    N834     N        0.15473    0.32069    0.62033    1.000
    N835     N        0.11697    0.32551    0.50093    1.000
    N836     N        0.13652    0.39806    0.51251    1.000
    N837     N        0.14467    0.47143    0.51031    1.000
    Si838    Si       0.12830    0.47435    0.54944    1.000
    N839     N        0.16345    0.46779    0.57393    1.000
    Si840    Si       0.16018    0.45404    0.61774    1.000
    N841     N        0.11198    0.30889    0.68071    1.000
    Si842    Si       0.13269    0.27489    0.70007    1.000
    Si843    Si       0.13575    0.33539    0.65742    1.000
    N844     N        0.12647    0.25891    0.74196    1.000
    N845     N        0.11000    0.36893    0.64380    1.000
    Si846    Si       0.10815    0.41164    0.65710    1.000
    Si847    Si       0.11776    0.41597    0.73209    1.000
    N848     N        0.12962    0.49490    0.69862    1.000
    N849     N        0.13870    0.41125    0.69050    1.000
    N850     N        0.12020    0.43847    0.62473    1.000
    N851     N        0.12093    0.51138    0.63056    1.000
    Si852    Si       0.13912    0.31355    0.81557    1.000
    N853     N        0.13649    0.29770    0.85723    1.000
    N854     N        0.15065    0.35398    0.81559    1.000
    Si855    Si       0.13185    0.25628    0.78445    1.000
    N856     N        0.13907    0.43815    0.76176    1.000
    Si857    Si       0.12716    0.45387    0.79988    1.000
    N858     N        0.11457    0.42346    0.83169    1.000
    Si859    Si       0.15547    0.43042    0.85094    1.000
    N860     N        0.15697    0.46943    0.82658    1.000
    N861     N        0.12839    0.32113    0.97337    1.000
    Si862    Si       0.14844    0.35963    0.96720    1.000
    N863     N        0.15613    0.28404    0.92501    1.000
    N864     N        0.14361    0.37537    0.92607    1.000
    N865     N        0.13250    0.38970    0.99454    1.000
    Si866    Si       0.12485    0.47568    0.97514    1.000
    Si867    Si       0.11089    0.44396    0.91245    1.000
    N868     N        0.10957    0.44192    0.95470    1.000
    N869     N        0.14919    0.44768    0.89167    1.000
    N870     N        0.13510    0.55523    0.08864    1.000
    N871     N        0.12660    0.54160    0.01766    1.000
    Si872    Si       0.15048    0.59412    0.10503    1.000
    Si873    Si       0.15164    0.53342    0.05412    1.000
    N874     N        0.14174    0.62820    0.07797    1.000
    Si875    Si       0.15268    0.71758    0.03130    1.000
    Si876    Si       0.13591    0.73958    0.08775    1.000
    N877     N        0.11682    0.71455    0.05711    1.000
    N878     N        0.15950    0.67411    0.02550    1.000
    Si879    Si       0.16148    0.52722    0.20391    1.000
    N880     N        0.14184    0.61308    0.14312    1.000
    N881     N        0.12626    0.54940    0.19151    1.000
    Si882    Si       0.16376    0.71599    0.15973    1.000
    N883     N        0.14035    0.72283    0.12610    1.000
    Si884    Si       0.11401    0.68646    0.21546    1.000
    N885     N        0.13913    0.71962    0.19795    1.000
    N886     N        0.14986    0.61826    0.29929    1.000
    N887     N        0.14966    0.54151    0.29534    1.000
    Si888    Si       0.14495    0.57735    0.31899    1.000
    Si889    Si       0.12079    0.50924    0.29222    1.000
    N890     N        0.13549    0.73308    0.33875    1.000
    Si891    Si       0.14599    0.69036    0.33969    1.000
    Si892    Si       0.11679    0.64602    0.28889    1.000
    N893     N        0.12015    0.66711    0.25178    1.000
    N894     N        0.11095    0.67104    0.32338    1.000
    N895     N        0.16158    0.55179    0.48958    1.000
    Si896    Si       0.11281    0.52935    0.43051    1.000
    N897     N        0.12635    0.54471    0.39268    1.000
    N898     N        0.13600    0.61228    0.40696    1.000
    Si899    Si       0.15811    0.57535    0.39412    1.000
    Si900    Si       0.12560    0.57648    0.48938    1.000
    N901     N        0.13860    0.61705    0.49242    1.000
    N902     N        0.10691    0.56693    0.45095    1.000
    N903     N        0.14298    0.67499    0.44641    1.000
    N904     N        0.16418    0.67293    0.37565    1.000
    Si905    Si       0.13650    0.65845    0.40574    1.000
    Si906    Si       0.11909    0.65060    0.47354    1.000
    Si907    Si       0.16096    0.71150    0.46037    1.000
    N908     N        0.13637    0.74452    0.44562    1.000
    Si909    Si       0.13436    0.53513    0.59523    1.000
    Si910    Si       0.13857    0.61509    0.59822    1.000
    N911     N        0.11968    0.57452    0.60316    1.000
    Si912    Si       0.16426    0.62722    0.52687    1.000
    N913     N        0.11605    0.51444    0.56205    1.000
    N914     N        0.13194    0.63176    0.55682    1.000
    N915     N        0.14082    0.73996    0.56496    1.000
    Si916    Si       0.13554    0.74500    0.52184    1.000
    N917     N        0.13341    0.65456    0.61970    1.000
    N918     N        0.16509    0.71838    0.50505    1.000
    Si919    Si       0.10680    0.75293    0.58765    1.000
    N920     N        0.14846    0.58371    0.72586    1.000
    Si921    Si       0.13677    0.58066    0.68437    1.000
    N922     N        0.12543    0.62449    0.67559    1.000
    N923     N        0.16535    0.54885    0.67372    1.000
    Si924    Si       0.14826    0.51131    0.66325    1.000
    N925     N        0.15255    0.69788    0.67106    1.000
    Si926    Si       0.15230    0.65478    0.65912    1.000
    Si927    Si       0.14644    0.72841    0.64026    1.000
    N928     N        0.12905    0.54058    0.77128    1.000
    N929     N        0.13080    0.61129    0.79077    1.000
    Si930    Si       0.12168    0.58325    0.76063    1.000
    N931     N        0.11801    0.56501    0.84204    1.000
    Si932    Si       0.15516    0.54477    0.85698    1.000
    Si933    Si       0.11339    0.60585    0.82788    1.000
    N934     N        0.13910    0.63422    0.85324    1.000
    Si935    Si       0.13944    0.67600    0.84096    1.000
    N936     N        0.13745    0.73761    0.79261    1.000
    Si937    Si       0.14237    0.69794    0.77288    1.000
    N938     N        0.16340    0.67296    0.80381    1.000
    N939     N        0.11446    0.75185    0.86758    1.000
    Si940    Si       0.10920    0.73853    0.82621    1.000
    N941     N        0.15822    0.70156    0.87430    1.000
    Si942    Si       0.13400    0.54909    0.97509    1.000
    Si943    Si       0.11585    0.61580    0.93995    1.000
    N944     N        0.15425    0.60586    0.91760    1.000
    N945     N        0.15324    0.51701    0.88927    1.000
    Si946    Si       0.11392    0.51427    0.90999    1.000
    N947     N        0.12077    0.51369    0.95329    1.000
    Si948    Si       0.16430    0.72961    0.95945    1.000
    N949     N        0.12911    0.72051    0.93593    1.000
    Si950    Si       0.16008    0.66099    0.98222    1.000
    N951     N        0.12459    0.65427    0.95788    1.000
    Si952    Si       0.12139    0.71668    0.89454    1.000
    N953     N        0.14455    0.74327    0.99631    1.000
    N954     N        0.14936    0.82657    0.08668    1.000
    N955     N        0.12032    0.80752    0.02275    1.000
    Si956    Si       0.11739    0.84471    0.11247    1.000
    Si957    Si       0.11732    0.80559    0.06465    1.000
    Si958    Si       0.15208    0.82857    0.99980    1.000
    N959     N        0.12512    0.88757    0.11499    1.000
    N960     N        0.15234    0.94940    0.09547    1.000
    Si961    Si       0.12875    0.95638    0.00715    1.000
    Si962    Si       0.11477    0.96719    0.08214    1.000
    N963     N        0.11611    0.98124    0.04030    1.000
    Si964    Si       0.16403    0.90704    0.10162    1.000
    Si965    Si       0.12822    0.75992    0.21076    1.000
    Si966    Si       0.15284    0.82170    0.17442    1.000
    N967     N        0.11446    0.82239    0.15087    1.000
    N968     N        0.14822    0.84044    0.21291    1.000
    N969     N        0.15954    0.78146    0.18879    1.000
    Si970    Si       0.14899    0.88251    0.22544    1.000
    Si971    Si       0.13583    0.94886    0.18636    1.000
    N972     N        0.10771    0.94846    0.15251    1.000
    N973     N        0.16101    0.91225    0.19391    1.000
    N974     N        0.16133    0.98320    0.19497    1.000
    Si975    Si       0.12663    0.81811    0.32455    1.000
    N976     N        0.13065    0.83183    0.28265    1.000
    N977     N        0.11514    0.85290    0.34869    1.000
    N978     N        0.16150    0.80405    0.34461    1.000
    N979     N        0.13280    0.77672    0.24940    1.000
    Si980    Si       0.14218    0.88471    0.34705    1.000
    Si981    Si       0.15379    0.81509    0.25038    1.000
    Si982    Si       0.14032    0.00600    0.30434    1.000
    N983     N        0.11864    0.97376    0.32575    1.000
    N984     N        0.13797    0.99182    0.26335    1.000
    N985     N        0.14036    0.90701    0.30929    1.000
    Si986    Si       0.12090    0.97922    0.36790    1.000
    N987     N        0.13587    0.85157    0.42357    1.000
    N988     N        0.14682    0.90591    0.38420    1.000
    N989     N        0.12376    0.91053    0.45336    1.000
    N990     N        0.16373    0.97773    0.38046    1.000
    Si991    Si       0.12194    0.89119    0.41584    1.000
    Si992    Si       0.13518    0.99755    0.48160    1.000
    N993     N        0.13725    0.00575    0.43907    1.000
    N994     N        0.13973    0.95599    0.49630    1.000
    N995     N        0.14605    0.78975    0.52427    1.000
    N996     N        0.14324    0.86390    0.57447    1.000
    Si997    Si       0.13807    0.82643    0.59677    1.000
    N998     N        0.11158    0.85348    0.51268    1.000
    Si999    Si       0.11118    0.81114    0.50958    1.000
    Si1000   Si       0.12965    0.88291    0.53859    1.000
    Si1001   Si       0.14368    0.90201    0.59837    1.000
    N1002    N        0.12830    0.92197    0.56086    1.000
    Si1003   Si       0.15751    0.94000    0.53160    1.000
    N1004    N        0.16362    0.89917    0.51302    1.000
    N1005    N        0.14136    0.84331    0.63745    1.000
    Si1006   Si       0.13927    0.79250    0.69223    1.000
    N1007    N        0.12910    0.76396    0.66061    1.000
    N1008    N        0.14080    0.76147    0.72390    1.000
    N1009    N        0.10860    0.82241    0.69845    1.000
    N1010    N        0.11888    0.97634    0.71592    1.000
    N1011    N        0.13647    0.89855    0.73969    1.000
    Si1012   Si       0.15898    0.96044    0.71076    1.000
    N1013    N        0.12392    0.80225    0.77858    1.000
    Si1014   Si       0.14151    0.82491    0.80984    1.000
    Si1015   Si       0.14847    0.77004    0.76445    1.000
    N1016    N        0.15858    0.86298    0.79627    1.000
    N1017    N        0.11204    0.82044    0.84424    1.000
    Si1018   Si       0.13919    0.90184    0.78392    1.000
    Si1019   Si       0.13356    0.94839    0.82918    1.000
    N1020    N        0.15504    0.93673    0.86456    1.000
    N1021    N        0.10956    0.98376    0.83855    1.000
    Si1022   Si       0.13760    0.00420    0.86626    1.000
    N1023    N        0.16312    0.93938    0.79535    1.000
    Si1024   Si       0.11679    0.79471    0.87679    1.000
    N1025    N        0.14576    0.86919    0.89685    1.000
    N1026    N        0.14162    0.80432    0.96521    1.000
    N1027    N        0.15663    0.79777    0.89146    1.000
    Si1028   Si       0.11538    0.77640    0.99070    1.000
    N1029    N        0.14542    0.87271    0.99438    1.000
    N1030    N        0.15236    0.99129    0.90721    1.000
    N1031    N        0.12836    0.98524    0.97440    1.000
    N1032    N        0.14818    0.92271    0.93919    1.000
    Si1033   Si       0.15865    0.91130    0.89889    1.000
    Si1034   Si       0.15233    0.96544    0.94250    1.000
    Si1035   Si       0.12103    0.89620    0.96503    1.000
    Si1036   Si       0.19670    0.03232    0.05015    1.000
    N1037    N        0.18028    0.07017    0.03883    1.000
    N1038    N        0.17541    0.01900    0.08622    1.000
    Si1039   Si       0.20279    0.09142    0.00707    1.000
    N1040    N        0.19131    0.08563    0.11880    1.000
    N1041    N        0.19842    0.15214    0.09007    1.000
    N1042    N        0.18511    0.22457    0.07123    1.000
    N1043    N        0.19173    0.17255    0.02308    1.000
    Si1044   Si       0.17829    0.18227    0.06583    1.000
    Si1045   Si       0.17931    0.24716    0.02944    1.000
    Si1046   Si       0.22035    0.24386    0.09005    1.000
    N1047    N        0.22134    0.23110    0.01453    1.000
    Si1048   Si       0.18820    0.13029    0.12480    1.000
    N1049    N        0.20439    0.08898    0.20740    1.000
    Si1050   Si       0.17188    0.11046    0.22870    1.000
    N1051    N        0.22392    0.02486    0.17854    1.000
    Si1052   Si       0.22281    0.05054    0.21688    1.000
    N1053    N        0.19687    0.02898    0.24572    1.000
    N1054    N        0.18830    0.15097    0.22502    1.000
    N1055    N        0.21344    0.24595    0.13447    1.000
    Si1056   Si       0.19382    0.17228    0.19022    1.000
    N1057    N        0.17468    0.22335    0.23951    1.000
    Si1058   Si       0.17801    0.24203    0.15528    1.000
    N1059    N        0.20664    0.14260    0.16259    1.000
    N1060    N        0.17088    0.20413    0.17461    1.000
    Si1061   Si       0.20212    0.10126    0.29230    1.000
    N1062    N        0.19463    0.12248    0.32936    1.000
    Si1063   Si       0.21395    0.02096    0.28599    1.000
    N1064    N        0.18061    0.01301    0.31624    1.000
    Si1065   Si       0.21267    0.13034    0.36890    1.000
    N1066    N        0.16722    0.09494    0.26786    1.000
    Si1067   Si       0.21400    0.23399    0.25418    1.000
    N1068    N        0.18854    0.22525    0.35951    1.000
    N1069    N        0.17474    0.18014    0.30347    1.000
    Si1070   Si       0.21712    0.16894    0.30018    1.000
    Si1071   Si       0.22271    0.19980    0.37039    1.000
    Si1072   Si       0.19980    0.02847    0.47822    1.000
    N1073    N        0.19249    0.10870    0.40109    1.000
    N1074    N        0.18342    0.03728    0.38979    1.000
    Si1075   Si       0.20022    0.06742    0.41580    1.000
    N1076    N        0.18873    0.06554    0.45781    1.000
    Si1077   Si       0.17102    0.09970    0.48076    1.000
    N1078    N        0.19736    0.16688    0.38561    1.000
    N1079    N        0.21054    0.16737    0.45194    1.000
    N1080    N        0.20979    0.23541    0.45994    1.000
    Si1081   Si       0.18616    0.20075    0.46963    1.000
    Si1082   Si       0.18088    0.14874    0.42287    1.000
    Si1083   Si       0.22276    0.15407    0.49665    1.000
    N1084    N        0.19189    0.03269    0.58119    1.000
    N1085    N        0.17804    0.09960    0.56596    1.000
    Si1086   Si       0.21934    0.10710    0.57761    1.000
    N1087    N        0.17014    0.01435    0.50474    1.000
    Si1088   Si       0.16724    0.00995    0.54895    1.000
    N1089    N        0.20457    0.11439    0.50324    1.000
    N1090    N        0.21860    0.10292    0.62146    1.000
    N1091    N        0.19998    0.18577    0.51241    1.000
    Si1092   Si       0.22421    0.23977    0.60496    1.000
    N1093    N        0.21951    0.25595    0.56559    1.000
    N1094    N        0.18539    0.23189    0.62242    1.000
    N1095    N        0.19402    0.03885    0.65747    1.000
    N1096    N        0.17923    0.07929    0.73978    1.000
    N1097    N        0.16377    0.09997    0.67623    1.000
    Si1098   Si       0.22113    0.08188    0.72945    1.000
    Si1099   Si       0.22477    0.06886    0.64978    1.000
    N1100    N        0.17472    0.20796    0.69555    1.000
    Si1101   Si       0.22304    0.14707    0.62453    1.000
    N1102    N        0.17422    0.14846    0.73394    1.000
    Si1103   Si       0.17227    0.20261    0.65324    1.000
    N1104    N        0.18776    0.16245    0.64198    1.000
    Si1105   Si       0.19905    0.24066    0.71000    1.000
    N1106    N        0.18866    0.06915    0.84340    1.000
    Si1107   Si       0.20023    0.02982    0.82657    1.000
    Si1108   Si       0.21262    0.10269    0.83018    1.000
    N1109    N        0.18241    0.03234    0.78537    1.000
    Si1110   Si       0.20567    0.01611    0.75188    1.000
    N1111    N        0.18947    0.12731    0.80206    1.000
    Si1112   Si       0.20586    0.14412    0.76483    1.000
    Si1113   Si       0.20448    0.21924    0.78436    1.000
    N1114    N        0.20805    0.24848    0.75257    1.000
    Si1115   Si       0.22015    0.24318    0.86236    1.000
    N1116    N        0.22483    0.23188    0.82100    1.000
    N1117    N        0.22668    0.18338    0.76865    1.000
    N1118    N        0.17391    0.10673    0.97818    1.000
    Si1119   Si       0.18269    0.08345    0.94310    1.000
    N1120    N        0.22187    0.09888    0.92643    1.000
    N1121    N        0.17059    0.04272    0.94975    1.000
    N1122    N        0.22725    0.03097    0.91452    1.000
    Si1123   Si       0.18993    0.01224    0.92454    1.000
    Si1124   Si       0.21719    0.13680    0.90474    1.000
    Si1125   Si       0.17287    0.19653    0.91995    1.000
    Si1126   Si       0.20794    0.24085    0.97289    1.000
    N1127    N        0.19851    0.21947    0.89334    1.000
    N1128    N        0.17788    0.15626    0.90587    1.000
    N1129    N        0.18699    0.20607    0.95956    1.000
    Si1130   Si       0.20910    0.34792    0.04819    1.000
    N1131    N        0.20935    0.33159    0.08909    1.000
    N1132    N        0.16784    0.34791    0.03530    1.000
    N1133    N        0.18120    0.38932    0.10542    1.000
    Si1134   Si       0.19626    0.41422    0.07251    1.000
    N1135    N        0.21234    0.45058    0.09184    1.000
    Si1136   Si       0.17836    0.47773    0.10307    1.000
    N1137    N        0.22104    0.39145    0.04336    1.000
    N1138    N        0.21017    0.50560    0.11975    1.000
    Si1139   Si       0.18748    0.35136    0.12113    1.000
    Si1140   Si       0.21109    0.34995    0.19932    1.000
    N1141    N        0.21390    0.35251    0.15597    1.000
    N1142    N        0.17084    0.33710    0.20881    1.000
    N1143    N        0.16623    0.26894    0.18827    1.000
    Si1144   Si       0.17175    0.41700    0.13747    1.000
    N1145    N        0.20690    0.38912    0.21999    1.000
    N1146    N        0.20539    0.43720    0.15707    1.000
    Si1147   Si       0.19060    0.45822    0.19207    1.000
    N1148    N        0.18208    0.49851    0.17951    1.000
    Si1149   Si       0.22343    0.42470    0.24209    1.000
    N1150    N        0.16347    0.43814    0.21793    1.000
    N1151    N        0.20384    0.34925    0.27797    1.000
    N1152    N        0.17265    0.37175    0.33391    1.000
    Si1153   Si       0.17021    0.27526    0.30099    1.000
    Si1154   Si       0.16593    0.33768    0.25340    1.000
    N1155    N        0.17091    0.29123    0.34036    1.000
    N1156    N        0.20954    0.26245    0.28668    1.000
    Si1157   Si       0.18250    0.38543    0.29248    1.000
    Si1158   Si       0.19970    0.38518    0.36491    1.000
    N1159    N        0.19985    0.42553    0.28139    1.000
    Si1160   Si       0.18407    0.46218    0.29880    1.000
    N1161    N        0.21015    0.49566    0.28908    1.000
    N1162    N        0.16890    0.45886    0.34000    1.000
    Si1163   Si       0.19233    0.30440    0.41272    1.000
    Si1164   Si       0.20997    0.34831    0.47629    1.000
    N1165    N        0.20934    0.31051    0.45525    1.000
    Si1166   Si       0.21372    0.27365    0.47858    1.000
    N1167    N        0.21124    0.38097    0.45056    1.000
    N1168    N        0.17086    0.43298    0.46097    1.000
    Si1169   Si       0.19438    0.46071    0.44112    1.000
    N1170    N        0.17616    0.40689    0.39601    1.000
    N1171    N        0.18892    0.47893    0.40298    1.000
    Si1172   Si       0.17335    0.39625    0.43773    1.000
    Si1173   Si       0.18864    0.44432    0.37514    1.000
    N1174    N        0.20270    0.49915    0.46222    1.000
    Si1175   Si       0.17968    0.32952    0.58538    1.000
    N1176    N        0.17953    0.34854    0.50816    1.000
    N1177    N        0.17923    0.27552    0.50657    1.000
    N1178    N        0.22297    0.33009    0.58338    1.000
    Si1179   Si       0.18101    0.26344    0.54942    1.000
    Si1180   Si       0.16855    0.38094    0.53448    1.000
    N1181    N        0.20341    0.40556    0.53788    1.000
    Si1182   Si       0.19766    0.43360    0.57022    1.000
    N1183    N        0.18967    0.42291    0.61290    1.000
    Si1184   Si       0.19408    0.49838    0.56590    1.000
    N1185    N        0.19672    0.50928    0.52465    1.000
    N1186    N        0.22604    0.46673    0.56715    1.000
    N1187    N        0.17635    0.27580    0.69710    1.000
    Si1188   Si       0.19623    0.31371    0.69943    1.000
    N1189    N        0.20663    0.32160    0.74025    1.000
    N1190    N        0.16942    0.34466    0.68426    1.000
    N1191    N        0.17950    0.38574    0.74042    1.000
    Si1192   Si       0.21956    0.41644    0.64346    1.000
    N1193    N        0.20927    0.44959    0.74088    1.000
    Si1194   Si       0.17283    0.38612    0.69809    1.000
    Si1195   Si       0.22165    0.49099    0.64833    1.000
    N1196    N        0.17847    0.48417    0.64435    1.000
    N1197    N        0.20801    0.40705    0.68491    1.000
    Si1198   Si       0.20514    0.28909    0.77003    1.000
    Si1199   Si       0.18414    0.37868    0.82191    1.000
    Si1200   Si       0.21172    0.36088    0.75712    1.000
    N1201    N        0.21828    0.35799    0.80065    1.000
    N1202    N        0.16630    0.28670    0.79268    1.000
    Si1203   Si       0.18100    0.42458    0.76119    1.000
    Si1204   Si       0.19385    0.49101    0.82675    1.000
    N1205    N        0.18648    0.41679    0.80270    1.000
    N1206    N        0.18059    0.39814    0.86318    1.000
    N1207    N        0.20996    0.48600    0.86798    1.000
    Si1208   Si       0.22110    0.49017    0.75396    1.000
    N1209    N        0.20801    0.28375    0.87308    1.000
    N1210    N        0.19037    0.33842    0.89131    1.000
    N1211    N        0.18836    0.33945    0.96446    1.000
    N1212    N        0.18160    0.27234    0.98921    1.000
    Si1213   Si       0.17936    0.37954    0.90221    1.000
    Si1214   Si       0.16882    0.29638    0.88603    1.000
    Si1215   Si       0.22640    0.35549    0.94811    1.000
    Si1216   Si       0.16511    0.30079    0.96395    1.000
    Si1217   Si       0.22671    0.43145    0.93702    1.000
    N1218    N        0.22120    0.50699    0.98439    1.000
    Si1219   Si       0.17825    0.48061    0.89756    1.000
    Si1220   Si       0.20050    0.46956    0.97763    1.000
    N1221    N        0.19807    0.46573    0.93354    1.000
    N1222    N        0.21494    0.39220    0.92519    1.000
    N1223    N        0.22919    0.43382    0.98029    1.000
    N1224    N        0.19018    0.55145    0.03787    1.000
    N1225    N        0.19201    0.58211    0.09924    1.000
    Si1226   Si       0.20928    0.58284    0.06023    1.000
    N1227    N        0.20031    0.62056    0.04283    1.000
    Si1228   Si       0.21752    0.61819    0.00184    1.000
    Si1229   Si       0.20356    0.54610    0.99711    1.000
    N1230    N        0.19830    0.67741    0.08803    1.000
    Si1231   Si       0.21168    0.71741    0.06989    1.000
    Si1232   Si       0.17485    0.65127    0.05981    1.000
    N1233    N        0.17296    0.73831    0.06310    1.000
    Si1234   Si       0.20667    0.57740    0.20920    1.000
    N1235    N        0.20500    0.56140    0.16960    1.000
    N1236    N        0.18599    0.54705    0.23457    1.000
    Si1237   Si       0.21299    0.51937    0.16049    1.000
    N1238    N        0.18578    0.61712    0.20366    1.000
    Si1239   Si       0.21945    0.58239    0.13279    1.000
    N1240    N        0.21381    0.62517    0.13985    1.000
    Si1241   Si       0.17606    0.63012    0.16382    1.000
    N1242    N        0.17662    0.67435    0.15815    1.000
    Si1243   Si       0.20924    0.66899    0.12841    1.000
    N1244    N        0.19906    0.74395    0.15410    1.000
    Si1245   Si       0.19177    0.53459    0.27619    1.000
    Si1246   Si       0.21151    0.59754    0.35475    1.000
    N1247    N        0.21302    0.56836    0.29403    1.000
    N1248    N        0.17137    0.57940    0.35359    1.000
    N1249    N        0.21145    0.62952    0.26932    1.000
    N1250    N        0.21656    0.63891    0.33741    1.000
    Si1251   Si       0.18802    0.63959    0.30351    1.000
    Si1252   Si       0.20124    0.71350    0.29732    1.000
    N1253    N        0.20268    0.74425    0.32849    1.000
    N1254    N        0.21054    0.73532    0.26050    1.000
    N1255    N        0.17305    0.68072    0.30683    1.000
    Si1256   Si       0.16702    0.76107    0.34911    1.000
    Si1257   Si       0.21548    0.59041    0.42833    1.000
    N1258    N        0.20603    0.61745    0.39518    1.000
    N1259    N        0.18935    0.55724    0.41922    1.000
    N1260    N        0.20870    0.60368    0.46807    1.000
    Si1261   Si       0.20282    0.51690    0.42077    1.000
    Si1262   Si       0.22602    0.63558    0.49076    1.000
    Si1263   Si       0.20415    0.65704    0.37708    1.000
    N1264    N        0.18088    0.75384    0.39051    1.000
    Si1265   Si       0.21546    0.72897    0.40235    1.000
    N1266    N        0.19851    0.73098    0.44419    1.000
    Si1267   Si       0.19336    0.57379    0.57691    1.000
    N1268    N        0.18473    0.59082    0.53686    1.000
    N1269    N        0.17999    0.60312    0.60656    1.000
    N1270    N        0.17656    0.53624    0.58519    1.000
    Si1271   Si       0.19780    0.57315    0.49959    1.000
    Si1272   Si       0.19859    0.69613    0.52390    1.000
    N1273    N        0.19873    0.69643    0.56516    1.000
    N1274    N        0.19260    0.65642    0.51038    1.000
    Si1275   Si       0.18314    0.73632    0.57726    1.000
    N1276    N        0.18322    0.73791    0.62107    1.000
    Si1277   Si       0.21355    0.62007    0.62541    1.000
    Si1278   Si       0.18636    0.59714    0.73974    1.000
    Si1279   Si       0.19705    0.54428    0.70269    1.000
    N1280    N        0.21430    0.58547    0.71003    1.000
    N1281    N        0.19316    0.52436    0.74231    1.000
    Si1282   Si       0.22611    0.62338    0.68775    1.000
    Si1283   Si       0.22203    0.74233    0.64435    1.000
    Si1284   Si       0.20809    0.67304    0.74063    1.000
    N1285    N        0.17241    0.70183    0.74095    1.000
    N1286    N        0.19370    0.63967    0.66091    1.000
    N1287    N        0.20090    0.74223    0.68690    1.000
    Si1288   Si       0.16372    0.72708    0.70378    1.000
    Si1289   Si       0.20059    0.57187    0.82174    1.000
    N1290    N        0.18508    0.58211    0.78197    1.000
    N1291    N        0.18056    0.53379    0.82174    1.000
    N1292    N        0.18284    0.58126    0.86133    1.000
    Si1293   Si       0.17164    0.54133    0.77783    1.000
    Si1294   Si       0.17240    0.62799    0.79356    1.000
    N1295    N        0.20954    0.63133    0.81737    1.000
    N1296    N        0.18717    0.63775    0.75268    1.000
    Si1297   Si       0.20866    0.67418    0.81132    1.000
    N1298    N        0.21877    0.70044    0.84281    1.000
    Si1299   Si       0.18463    0.59485    0.94640    1.000
    N1300    N        0.18186    0.62336    0.97880    1.000
    N1301    N        0.17568    0.55711    0.96624    1.000
    Si1302   Si       0.17056    0.61765    0.88029    1.000
    N1303    N        0.18849    0.75833    0.93860    1.000
    Si1304   Si       0.20108    0.69036    0.88140    1.000
    N1305    N        0.18725    0.69542    0.97021    1.000
    Si1306   Si       0.22229    0.75141    0.91235    1.000
    N1307    N        0.20211    0.64714    0.88703    1.000
    N1308    N        0.18676    0.82730    0.02469    1.000
    Si1309   Si       0.18107    0.84554    0.06484    1.000
    N1310    N        0.21780    0.84398    0.08503    1.000
    N1311    N        0.21373    0.88449    0.01012    1.000
    N1312    N        0.16814    0.88711    0.06224    1.000
    Si1313   Si       0.18553    0.97812    0.09568    1.000
    Si1314   Si       0.19713    0.96759    0.02478    1.000
    N1315    N        0.21281    0.96483    0.06423    1.000
    Si1316   Si       0.17226    0.89584    0.01967    1.000
    N1317    N        0.18010    0.00766    0.01883    1.000
    N1318    N        0.16648    0.93843    0.01615    1.000
    N1319    N        0.19285    0.82000    0.15189    1.000
    Si1320   Si       0.21144    0.85196    0.12752    1.000
    Si1321   Si       0.20052    0.78162    0.17551    1.000
    N1322    N        0.22272    0.86736    0.20126    1.000
    Si1323   Si       0.21421    0.85042    0.24277    1.000
    Si1324   Si       0.20137    0.89785    0.17668    1.000
    N1325    N        0.19965    0.97562    0.13624    1.000
    N1326    N        0.18956    0.88803    0.13345    1.000
    Si1327   Si       0.18439    0.00454    0.16437    1.000
    N1328    N        0.18233    0.86721    0.33606    1.000
    Si1329   Si       0.19539    0.82980    0.35526    1.000
    N1330    N        0.18053    0.87771    0.25556    1.000
    N1331    N        0.19819    0.81157    0.25354    1.000
    Si1332   Si       0.22374    0.77632    0.24721    1.000
    Si1333   Si       0.21641    0.89370    0.34548    1.000
    Si1334   Si       0.17752    0.88829    0.29691    1.000
    N1335    N        0.21640    0.90752    0.30512    1.000
    Si1336   Si       0.19293    0.00705    0.35731    1.000
    N1337    N        0.20595    0.84334    0.39608    1.000
    Si1338   Si       0.17852    0.84513    0.42933    1.000
    N1339    N        0.18126    0.80402    0.44757    1.000
    N1340    N        0.18963    0.87454    0.46123    1.000
    Si1341   Si       0.21299    0.80959    0.47673    1.000
    Si1342   Si       0.16905    0.76586    0.42941    1.000
    Si1343   Si       0.16678    0.91417    0.46937    1.000
    Si1344   Si       0.17775    0.93659    0.39242    1.000
    N1345    N        0.20441    0.99924    0.44692    1.000
    N1346    N        0.21210    0.93859    0.49002    1.000
    N1347    N        0.21517    0.92117    0.37771    1.000
    N1348    N        0.18091    0.94022    0.43355    1.000
    Si1349   Si       0.17156    0.00370    0.41554    1.000
    Si1350   Si       0.21495    0.95867    0.45254    1.000
    Si1351   Si       0.18423    0.80198    0.54434    1.000
    N1352    N        0.19848    0.82921    0.51284    1.000
    Si1353   Si       0.21358    0.81645    0.60504    1.000
    N1354    N        0.17457    0.80742    0.58760    1.000
    Si1355   Si       0.19855    0.87330    0.50539    1.000
    N1356    N        0.20576    0.76363    0.55026    1.000
    Si1357   Si       0.20589    0.95299    0.58731    1.000
    N1358    N        0.18343    0.92111    0.61068    1.000
    N1359    N        0.17778    0.96793    0.55674    1.000
    N1360    N        0.22257    0.97962    0.61957    1.000
    N1361    N        0.17559    0.81577    0.69039    1.000
    Si1362   Si       0.17625    0.84849    0.66090    1.000
    N1363    N        0.20968    0.84891    0.63427    1.000
    Si1364   Si       0.20245    0.81532    0.72331    1.000
    N1365    N        0.19638    0.85587    0.73655    1.000
    N1366    N        0.17012    0.96216    0.66814    1.000
    Si1367   Si       0.17699    0.89132    0.72058    1.000
    N1368    N        0.19059    0.93320    0.72230    1.000
    Si1369   Si       0.18702    0.92445    0.65454    1.000
    N1370    N        0.17841    0.00365    0.71944    1.000
    Si1371   Si       0.19649    0.99801    0.67585    1.000
    N1372    N        0.17326    0.88919    0.67776    1.000
    Si1373   Si       0.20890    0.79320    0.79368    1.000
    Si1374   Si       0.19967    0.86357    0.78041    1.000
    Si1375   Si       0.18783    0.80004    0.86230    1.000
    N1376    N        0.18864    0.78740    0.75525    1.000
    N1377    N        0.17578    0.79937    0.81958    1.000
    N1378    N        0.20718    0.83620    0.87069    1.000
    Si1379   Si       0.19077    0.96035    0.85953    1.000
    Si1380   Si       0.20480    0.94525    0.79013    1.000
    N1381    N        0.17481    0.99847    0.84385    1.000
    N1382    N        0.21941    0.94260    0.83103    1.000
    N1383    N        0.22171    0.90440    0.77849    1.000
    N1384    N        0.21982    0.97589    0.76452    1.000
    N1385    N        0.21428    0.76592    0.87224    1.000
    N1386    N        0.19903    0.82885    0.93436    1.000
    Si1387   Si       0.18781    0.85794    0.90341    1.000
    Si1388   Si       0.16928    0.79649    0.93318    1.000
    N1389    N        0.19345    0.98177    0.95487    1.000
    N1390    N        0.20327    0.89912    0.90025    1.000
    N1391    N        0.21873    0.96977    0.89206    1.000
    N1392    N        0.23895    0.03688    0.04238    1.000
    N1393    N        0.24803    0.10724    0.08852    1.000
    Si1394   Si       0.26712    0.02792    0.07367    1.000
    N1395    N        0.23387    0.11741    0.02398    1.000
    N1396    N        0.24798    0.03984    0.11054    1.000
    Si1397   Si       0.27495    0.11270    0.01016    1.000
    Si1398   Si       0.25740    0.03940    0.00317    1.000
    Si1399   Si       0.23322    0.08034    0.12019    1.000
    Si1400   Si       0.23232    0.13800    0.06352    1.000
    N1401    N        0.25104    0.17670    0.05523    1.000
    N1402    N        0.26103    0.22935    0.09995    1.000
    Si1403   Si       0.23273    0.18737    0.01754    1.000
    Si1404   Si       0.27956    0.20555    0.07169    1.000
    Si1405   Si       0.25245    0.26044    0.02464    1.000
    Si1406   Si       0.25851    0.02429    0.15231    1.000
    N1407    N        0.25345    0.09542    0.15581    1.000
    N1408    N        0.26518    0.06096    0.22468    1.000
    Si1409   Si       0.23222    0.11589    0.18730    1.000
    Si1410   Si       0.23109    0.16080    0.23847    1.000
    N1411    N        0.25946    0.13493    0.21551    1.000
    N1412    N        0.27742    0.24259    0.17236    1.000
    N1413    N        0.23270    0.19113    0.20538    1.000
    Si1414   Si       0.25762    0.25311    0.13603    1.000
    N1415    N        0.24057    0.25331    0.22666    1.000
    Si1416   Si       0.26390    0.22056    0.20737    1.000
    Si1417   Si       0.27123    0.07134    0.30857    1.000
    N1418    N        0.25333    0.11850    0.36441    1.000
    Si1419   Si       0.27404    0.01610    0.35931    1.000
    N1420    N        0.27403    0.05687    0.34922    1.000
    N1421    N        0.22892    0.06337    0.29767    1.000
    Si1422   Si       0.27621    0.20776    0.28048    1.000
    Si1423   Si       0.27200    0.14706    0.33700    1.000
    N1424    N        0.23900    0.17705    0.33687    1.000
    N1425    N        0.23364    0.19702    0.27025    1.000
    N1426    N        0.22610    0.13429    0.27606    1.000
    N1427    N        0.28014    0.24686    0.29992    1.000
    Si1428   Si       0.27041    0.06185    0.44074    1.000
    N1429    N        0.26125    0.09106    0.47159    1.000
    Si1430   Si       0.27174    0.08411    0.38323    1.000
    N1431    N        0.24213    0.06271    0.40968    1.000
    N1432    N        0.27727    0.02250    0.45558    1.000
    Si1433   Si       0.28047    0.12982    0.46788    1.000
    N1434    N        0.27682    0.21438    0.46917    1.000
    N1435    N        0.27543    0.15934    0.43404    1.000
    N1436    N        0.24924    0.21356    0.40300    1.000
    Si1437   Si       0.24870    0.19323    0.44137    1.000
    Si1438   Si       0.25722    0.25622    0.39829    1.000
    N1439    N        0.24522    0.08578    0.55119    1.000
    Si1440   Si       0.23533    0.08410    0.50757    1.000
    N1441    N        0.26484    0.01704    0.57117    1.000
    Si1442   Si       0.23075    0.01852    0.59898    1.000
    Si1443   Si       0.27947    0.05767    0.56096    1.000
    N1444    N        0.23436    0.03958    0.50186    1.000
    Si1445   Si       0.27613    0.02889    0.49944    1.000
    N1446    N        0.24827    0.20346    0.61115    1.000
    N1447    N        0.26457    0.21232    0.54138    1.000
    Si1448   Si       0.26193    0.18382    0.57422    1.000
    N1449    N        0.23401    0.14851    0.57972    1.000
    Si1450   Si       0.25641    0.25504    0.53987    1.000
    N1451    N        0.26529    0.15594    0.50119    1.000
    Si1452   Si       0.28313    0.19497    0.50631    1.000
    N1453    N        0.25205    0.04623    0.62624    1.000
    Si1454   Si       0.26768    0.11765    0.67575    1.000
    N1455    N        0.23805    0.08744    0.68703    1.000
    N1456    N        0.25769    0.15109    0.65061    1.000
    Si1457   Si       0.28018    0.18201    0.63015    1.000
    N1458    N        0.23711    0.23783    0.68839    1.000
    Si1459   Si       0.27926    0.22436    0.69306    1.000
    N1460    N        0.25058    0.08491    0.81614    1.000
    Si1461   Si       0.26689    0.05919    0.78362    1.000
    N1462    N        0.23954    0.02003    0.84271    1.000
    Si1463   Si       0.27070    0.10634    0.84970    1.000
    N1464    N        0.23089    0.12231    0.86581    1.000
    Si1465   Si       0.27860    0.12228    0.75460    1.000
    Si1466   Si       0.27945    0.03517    0.84599    1.000
    N1467    N        0.23537    0.11655    0.75120    1.000
    N1468    N        0.23803    0.04674    0.75131    1.000
    Si1469   Si       0.26998    0.19001    0.76433    1.000
    N1470    N        0.28146    0.23112    0.78296    1.000
    Si1471   Si       0.25875    0.25691    0.80848    1.000
    Si1472   Si       0.24314    0.06262    0.93982    1.000
    N1473    N        0.22799    0.06503    0.98044    1.000
    N1474    N        0.25928    0.23099    0.88136    1.000
    Si1475   Si       0.23928    0.21291    0.91678    1.000
    Si1476   Si       0.27318    0.16132    0.95093    1.000
    N1477    N        0.23900    0.24904    0.94602    1.000
    N1478    N        0.23880    0.16874    0.92433    1.000
    N1479    N        0.26360    0.18269    0.98810    1.000
    Si1480   Si       0.25202    0.30929    0.08170    1.000
    N1481    N        0.25452    0.34065    0.04697    1.000
    Si1482   Si       0.26632    0.33402    0.00542    1.000
    N1483    N        0.23457    0.27461    0.06320    1.000
    Si1484   Si       0.26676    0.38158    0.06236    1.000
    N1485    N        0.25897    0.39751    0.10597    1.000
    N1486    N        0.27730    0.41702    0.03224    1.000
    N1487    N        0.26581    0.48496    0.06765    1.000
    Si1488   Si       0.24133    0.48279    0.10306    1.000
    Si1489   Si       0.24446    0.40510    0.00640    1.000
    Si1490   Si       0.28571    0.38283    0.13663    1.000
    N1491    N        0.25401    0.29645    0.12455    1.000
    Si1492   Si       0.26238    0.29086    0.22484    1.000
    Si1493   Si       0.24876    0.32639    0.15617    1.000
    N1494    N        0.24377    0.31918    0.20072    1.000
    Si1495   Si       0.24356    0.42880    0.13611    1.000
    N1496    N        0.26464    0.41562    0.24255    1.000
    N1497    N        0.26939    0.40966    0.16654    1.000
    Si1498   Si       0.25894    0.48761    0.21489    1.000
    N1499    N        0.26829    0.46414    0.13241    1.000
    N1500    N        0.22471    0.46210    0.21876    1.000
    N1501    N        0.24722    0.31213    0.32562    1.000
    Si1502   Si       0.24382    0.34023    0.29120    1.000
    Si1503   Si       0.24918    0.27815    0.29765    1.000
    N1504    N        0.26095    0.30766    0.26514    1.000
    N1505    N        0.27294    0.37231    0.29351    1.000
    Si1506   Si       0.24866    0.31824    0.36892    1.000
    Si1507   Si       0.26372    0.43424    0.34982    1.000
    N1508    N        0.26984    0.44604    0.30611    1.000
    Si1509   Si       0.25390    0.48454    0.29207    1.000
    N1510    N        0.26697    0.50186    0.25420    1.000
    N1511    N        0.22265    0.42466    0.35765    1.000
    N1512    N        0.22663    0.28723    0.39106    1.000
    N1513    N        0.23190    0.35931    0.37663    1.000
    Si1514   Si       0.27100    0.37254    0.38915    1.000
    N1515    N        0.28557    0.33143    0.39062    1.000
    Si1516   Si       0.27128    0.32106    0.49737    1.000
    N1517    N        0.27465    0.38920    0.42938    1.000
    N1518    N        0.23233    0.44446    0.43421    1.000
    Si1519   Si       0.26105    0.47306    0.41665    1.000
    Si1520   Si       0.24434    0.40775    0.45186    1.000
    N1521    N        0.25539    0.41932    0.49206    1.000
    N1522    N        0.27651    0.46541    0.37709    1.000
    Si1523   Si       0.28143    0.45385    0.49015    1.000
    Si1524   Si       0.25278    0.29809    0.59314    1.000
    Si1525   Si       0.25171    0.36377    0.59076    1.000
    N1526    N        0.24983    0.28109    0.50460    1.000
    N1527    N        0.28128    0.28004    0.56454    1.000
    N1528    N        0.24599    0.35479    0.50115    1.000
    N1529    N        0.27526    0.33194    0.61412    1.000
    N1530    N        0.23540    0.50974    0.61347    1.000
    N1531    N        0.26653    0.38767    0.55820    1.000
    Si1532   Si       0.24272    0.39297    0.52259    1.000
    N1533    N        0.26657    0.49267    0.50616    1.000
    Si1534   Si       0.26102    0.48153    0.58761    1.000
    N1535    N        0.24339    0.27194    0.62576    1.000
    N1536    N        0.23180    0.31320    0.67454    1.000
    Si1537   Si       0.25292    0.34620    0.65318    1.000
    Si1538   Si       0.24951    0.27437    0.66861    1.000
    N1539    N        0.27482    0.36484    0.68491    1.000
    N1540    N        0.24003    0.38116    0.62837    1.000
    N1541    N        0.24507    0.39180    0.74765    1.000
    N1542    N        0.27701    0.43400    0.70802    1.000
    Si1543   Si       0.23415    0.42130    0.71773    1.000
    N1544    N        0.26219    0.49590    0.73775    1.000
    N1545    N        0.24308    0.45211    0.64918    1.000
    Si1546   Si       0.24875    0.33021    0.81286    1.000
    N1547    N        0.24172    0.29310    0.79364    1.000
    N1548    N        0.25507    0.33423    0.85622    1.000
    N1549    N        0.22450    0.48768    0.79635    1.000
    Si1550   Si       0.26461    0.47368    0.80730    1.000
    N1551    N        0.27027    0.45364    0.84492    1.000
    Si1552   Si       0.27685    0.40038    0.77686    1.000
    N1553    N        0.27649    0.44286    0.77802    1.000
    N1554    N        0.28223    0.39013    0.81762    1.000
    Si1555   Si       0.22774    0.32037    0.88792    1.000
    N1556    N        0.24950    0.36803    0.98244    1.000
    N1557    N        0.24374    0.32177    0.93009    1.000
    Si1558   Si       0.25813    0.28731    0.95209    1.000
    N1559    N        0.25901    0.29321    0.99523    1.000
    Si1560   Si       0.25261    0.47755    0.87671    1.000
    N1561    N        0.25784    0.45295    0.91305    1.000
    N1562    N        0.25236    0.57802    0.06107    1.000
    Si1563   Si       0.27212    0.57214    0.02275    1.000
    N1564    N        0.28017    0.53120    0.01517    1.000
    Si1565   Si       0.28149    0.57826    0.09238    1.000
    Si1566   Si       0.26815    0.73195    0.01832    1.000
    N1567    N        0.23827    0.74190    0.09382    1.000
    N1568    N        0.23143    0.70860    0.03217    1.000
    N1569    N        0.25756    0.56264    0.12554    1.000
    N1570    N        0.25119    0.51860    0.18269    1.000
    N1571    N        0.24437    0.59685    0.22595    1.000
    Si1572   Si       0.27714    0.54259    0.15921    1.000
    N1573    N        0.27688    0.75579    0.14932    1.000
    N1574    N        0.27448    0.63830    0.18536    1.000
    N1575    N        0.23141    0.67841    0.21809    1.000
    Si1576   Si       0.23749    0.73421    0.13612    1.000
    Si1577   Si       0.25747    0.67739    0.18240    1.000
    N1578    N        0.24075    0.69134    0.14499    1.000
    Si1579   Si       0.21652    0.63821    0.22666    1.000
    Si1580   Si       0.24491    0.59501    0.27199    1.000
    N1581    N        0.27427    0.62283    0.29811    1.000
    Si1582   Si       0.24890    0.54813    0.31814    1.000
    N1583    N        0.24002    0.56512    0.35648    1.000
    N1584    N        0.27184    0.56211    0.28141    1.000
    N1585    N        0.26551    0.51029    0.32597    1.000
    Si1586   Si       0.28559    0.75281    0.28274    1.000
    Si1587   Si       0.25249    0.65490    0.31692    1.000
    N1588    N        0.27289    0.74381    0.32383    1.000
    N1589    N        0.23769    0.68630    0.29199    1.000
    Si1590   Si       0.24025    0.70546    0.25121    1.000
    N1591    N        0.28070    0.72184    0.25134    1.000
    N1592    N        0.28208    0.67159    0.34427    1.000
    N1593    N        0.24482    0.51377    0.40944    1.000
    N1594    N        0.25830    0.58100    0.42049    1.000
    Si1595   Si       0.26279    0.54910    0.39015    1.000
    N1596    N        0.23668    0.55490    0.49665    1.000
    Si1597   Si       0.22959    0.51237    0.49520    1.000
    N1598    N        0.24561    0.75378    0.38758    1.000
    N1599    N        0.25027    0.66358    0.46994    1.000
    Si1600   Si       0.28001    0.74667    0.41285    1.000
    N1601    N        0.26504    0.71835    0.44192    1.000
    Si1602   Si       0.26032    0.67576    0.42936    1.000
    Si1603   Si       0.23368    0.73083    0.47002    1.000
    N1604    N        0.22686    0.68533    0.40126    1.000
    N1605    N        0.28694    0.64649    0.41012    1.000
    Si1606   Si       0.25827    0.54462    0.60136    1.000
    N1607    N        0.23680    0.57496    0.58150    1.000
    N1608    N        0.24917    0.61448    0.52281    1.000
    Si1609   Si       0.25687    0.61152    0.56702    1.000
    Si1610   Si       0.26947    0.58253    0.49987    1.000
    N1611    N        0.28310    0.51968    0.57461    1.000
    N1612    N        0.23573    0.63984    0.59369    1.000
    Si1613   Si       0.26942    0.68169    0.50819    1.000
    N1614    N        0.26392    0.67811    0.55389    1.000
    N1615    N        0.23735    0.71395    0.50961    1.000
    Si1616   Si       0.23313    0.68253    0.58519    1.000
    N1617    N        0.28726    0.55630    0.69305    1.000
    Si1618   Si       0.26571    0.51855    0.70009    1.000
    N1619    N        0.24752    0.60560    0.65204    1.000
    N1620    N        0.22629    0.51760    0.68280    1.000
    N1621    N        0.25867    0.73760    0.74004    1.000
    Si1622   Si       0.27552    0.70055    0.64116    1.000
    N1623    N        0.26019    0.73645    0.67111    1.000
    N1624    N        0.23689    0.70418    0.62233    1.000
    N1625    N        0.23801    0.65986    0.71009    1.000
    Si1626   Si       0.23844    0.75493    0.70516    1.000
    Si1627   Si       0.28078    0.65964    0.71249    1.000
    N1628    N        0.24377    0.57098    0.82311    1.000
    Si1629   Si       0.24870    0.61361    0.82713    1.000
    Si1630   Si       0.27297    0.54052    0.83302    1.000
    N1631    N        0.28067    0.62932    0.80047    1.000
    N1632    N        0.26123    0.61398    0.86972    1.000
    Si1633   Si       0.24652    0.72384    0.78068    1.000
    Si1634   Si       0.23543    0.74208    0.84452    1.000
    N1635    N        0.27583    0.75169    0.85603    1.000
    N1636    N        0.28036    0.70943    0.80583    1.000
    N1637    N        0.22790    0.75567    0.80390    1.000
    N1638    N        0.22850    0.68523    0.77507    1.000
    N1639    N        0.26824    0.51864    0.87175    1.000
    N1640    N        0.26836    0.53738    0.94458    1.000
    Si1641   Si       0.25601    0.57655    0.95441    1.000
    Si1642   Si       0.23764    0.62926    0.90281    1.000
    N1643    N        0.23630    0.57759    0.99468    1.000
    Si1644   Si       0.26436    0.51179    0.98013    1.000
    N1645    N        0.22645    0.59597    0.93013    1.000
    N1646    N        0.25552    0.71958    0.97664    1.000
    N1647    N        0.23382    0.71027    0.90387    1.000
    Si1648   Si       0.27990    0.74505    0.95109    1.000
    Si1649   Si       0.27290    0.69050    0.90628    1.000
    N1650    N        0.26395    0.65503    0.92746    1.000
    Si1651   Si       0.27731    0.64291    0.96671    1.000
    N1652    N        0.24366    0.65098    0.99231    1.000
    Si1653   Si       0.22462    0.69205    0.99083    1.000
    Si1654   Si       0.26076    0.84162    0.07833    1.000
    N1655    N        0.26179    0.84287    0.03501    1.000
    N1656    N        0.26364    0.77094    0.03780    1.000
    N1657    N        0.27111    0.80463    0.10184    1.000
    Si1658   Si       0.27095    0.76745    0.07998    1.000
    Si1659   Si       0.27766    0.79756    0.00604    1.000
    Si1660   Si       0.22521    0.84295    0.01002    1.000
    Si1661   Si       0.25495    0.95573    0.06936    1.000
    N1662    N        0.24762    0.93253    0.10900    1.000
    N1663    N        0.27221    0.92381    0.04453    1.000
    Si1664   Si       0.24537    0.91247    0.00981    1.000
    N1665    N        0.23068    0.95100    0.00191    1.000
    N1666    N        0.28285    0.98838    0.06781    1.000
    N1667    N        0.23229    0.77318    0.20454    1.000
    Si1668   Si       0.27466    0.77551    0.19103    1.000
    N1669    N        0.25113    0.86754    0.14284    1.000
    Si1670   Si       0.26087    0.85584    0.18276    1.000
    N1671    N        0.27831    0.81528    0.17580    1.000
    Si1672   Si       0.27341    0.89786    0.12019    1.000
    N1673    N        0.23494    0.92624    0.17875    1.000
    Si1674   Si       0.26609    0.91766    0.20822    1.000
    N1675    N        0.26871    0.98233    0.14861    1.000
    Si1676   Si       0.23587    0.95489    0.14547    1.000
    N1677    N        0.24906    0.85506    0.27015    1.000
    Si1678   Si       0.26541    0.83272    0.34779    1.000
    N1679    N        0.25950    0.78543    0.27060    1.000
    N1680    N        0.25517    0.87555    0.34770    1.000
    N1681    N        0.22986    0.80668    0.34390    1.000
    Si1682   Si       0.24055    0.76385    0.34441    1.000
    Si1683   Si       0.27917    0.82281    0.27672    1.000
    N1684    N        0.24319    0.98864    0.28401    1.000
    Si1685   Si       0.24948    0.89670    0.28134    1.000
    Si1686   Si       0.26812    0.95421    0.27728    1.000
    N1687    N        0.23497    0.00011    0.36002    1.000
    N1688    N        0.25049    0.92580    0.24859    1.000
    N1689    N        0.28262    0.91973    0.30224    1.000
    Si1690   Si       0.24621    0.84702    0.41571    1.000
    N1691    N        0.24309    0.83135    0.45448    1.000
    N1692    N        0.27517    0.82191    0.38932    1.000
    N1693    N        0.23361    0.77095    0.48498    1.000
    N1694    N        0.26792    0.88477    0.42332    1.000
    N1695    N        0.25125    0.95500    0.42782    1.000
    Si1696   Si       0.25357    0.92205    0.40241    1.000
    Si1697   Si       0.28267    0.98548    0.43347    1.000
    Si1698   Si       0.25041    0.86717    0.55933    1.000
    N1699    N        0.23888    0.82717    0.57341    1.000
    N1700    N        0.27674    0.77830    0.53692    1.000
    Si1701   Si       0.27951    0.81574    0.55939    1.000
    Si1702   Si       0.24134    0.75685    0.52564    1.000
    N1703    N        0.26270    0.88300    0.59797    1.000
    N1704    N        0.22747    0.89095    0.53314    1.000
    N1705    N        0.24118    0.95185    0.56131    1.000
    Si1706   Si       0.23998    0.93090    0.52235    1.000
    Si1707   Si       0.27660    0.97874    0.55653    1.000
    N1708    N        0.28300    0.92258    0.51050    1.000
    N1709    N        0.28415    0.98940    0.51446    1.000
    N1710    N        0.22964    0.78377    0.62999    1.000
    N1711    N        0.27419    0.85851    0.65495    1.000
    Si1712   Si       0.27020    0.82211    0.68122    1.000
    N1713    N        0.23977    0.79993    0.70422    1.000
    Si1714   Si       0.23968    0.87972    0.63535    1.000
    Si1715   Si       0.24555    0.95801    0.64921    1.000
    Si1716   Si       0.22929    0.95609    0.72730    1.000
    N1717    N        0.22916    0.91814    0.65244    1.000
    N1718    N        0.26632    0.93448    0.73286    1.000
    N1719    N        0.23260    0.97790    0.68661    1.000
    Si1720   Si       0.26242    0.84529    0.80846    1.000
    N1721    N        0.27235    0.81947    0.84391    1.000
    N1722    N        0.24991    0.87637    0.83584    1.000
    Si1723   Si       0.24776    0.84630    0.86944    1.000
    N1724    N        0.22677    0.83293    0.79264    1.000
    N1725    N        0.28405    0.86758    0.77648    1.000
    Si1726   Si       0.25343    0.91836    0.83397    1.000
    Si1727   Si       0.26512    0.90734    0.76782    1.000
    N1728    N        0.28141    0.93055    0.80111    1.000
    N1729    N        0.26415    0.83640    0.90898    1.000
    N1730    N        0.25394    0.77285    0.93045    1.000
    Si1731   Si       0.24141    0.81572    0.93816    1.000
    N1732    N        0.24413    0.81585    0.98197    1.000
    N1733    N        0.26375    0.00405    0.97919    1.000
    Si1734   Si       0.23370    0.97377    0.96478    1.000
    N1735    N        0.26767    0.92682    0.87476    1.000
    N1736    N        0.25294    0.94165    0.94099    1.000
    Si1737   Si       0.24298    0.00347    0.88289    1.000
    N1738    N        0.27679    0.89123    0.98680    1.000
    Si1739   Si       0.23459    0.92973    0.90416    1.000
    N1740    N        0.30147    0.05656    0.07586    1.000
    N1741    N        0.30015    0.12273    0.04520    1.000
    Si1742   Si       0.32951    0.05664    0.00691    1.000
    Si1743   Si       0.28989    0.09930    0.08247    1.000
    N1744    N        0.28824    0.06843    0.00632    1.000
    N1745    N        0.32375    0.01172    0.01229    1.000
    N1746    N        0.31203    0.10850    0.11792    1.000
    N1747    N        0.33017    0.17977    0.01650    1.000
    N1748    N        0.31651    0.18678    0.08100    1.000
    Si1749   Si       0.32839    0.15488    0.05209    1.000
    Si1750   Si       0.29910    0.20658    0.00222    1.000
    N1751    N        0.28587    0.23447    0.03536    1.000
    N1752    N        0.34083    0.25264    0.08247    1.000
    N1753    N        0.31608    0.01647    0.21845    1.000
    N1754    N        0.29631    0.04475    0.15745    1.000
    N1755    N        0.31878    0.10309    0.18951    1.000
    Si1756   Si       0.32828    0.02330    0.17697    1.000
    Si1757   Si       0.29807    0.09011    0.15467    1.000
    Si1758   Si       0.30395    0.05083    0.24163    1.000
    N1759    N        0.34352    0.07213    0.24243    1.000
    Si1760   Si       0.31526    0.25999    0.18336    1.000
    N1761    N        0.32127    0.14690    0.24756    1.000
    N1762    N        0.29184    0.21052    0.24019    1.000
    Si1763   Si       0.30275    0.13799    0.20908    1.000
    Si1764   Si       0.32910    0.18879    0.23435    1.000
    N1765    N        0.32001    0.17254    0.18975    1.000
    N1766    N        0.29697    0.04401    0.28443    1.000
    N1767    N        0.28577    0.11238    0.30868    1.000
    Si1768   Si       0.31369    0.13886    0.28962    1.000
    N1769    N        0.29301    0.17529    0.30371    1.000
    N1770    N        0.30452    0.16104    0.36742    1.000
    Si1771   Si       0.33238    0.17863    0.33916    1.000
    Si1772   Si       0.31161    0.25398    0.33173    1.000
    N1773    N        0.33851    0.21940    0.32377    1.000
    N1774    N        0.28434    0.25870    0.36396    1.000
    N1775    N        0.30231    0.08146    0.41413    1.000
    N1776    N        0.31889    0.11871    0.47940    1.000
    Si1777   Si       0.33854    0.01493    0.40181    1.000
    Si1778   Si       0.30471    0.23679    0.44454    1.000
    N1779    N        0.33544    0.25572    0.47058    1.000
    N1780    N        0.32430    0.20985    0.41850    1.000
    Si1781   Si       0.30914    0.17040    0.41033    1.000
    N1782    N        0.30640    0.07025    0.59265    1.000
    Si1783   Si       0.32667    0.09078    0.51105    1.000
    N1784    N        0.29901    0.05868    0.52184    1.000
    N1785    N        0.32929    0.11901    0.54296    1.000
    Si1786   Si       0.33731    0.09624    0.57903    1.000
    N1787    N        0.30235    0.17822    0.59267    1.000
    N1788    N        0.32541    0.19380    0.51363    1.000
    N1789    N        0.31344    0.02903    0.65634    1.000
    N1790    N        0.30013    0.09465    0.65532    1.000
    Si1791   Si       0.29254    0.05921    0.63156    1.000
    Si1792   Si       0.33029    0.12452    0.70940    1.000
    N1793    N        0.28870    0.12876    0.71321    1.000
    N1794    N        0.34050    0.08161    0.71353    1.000
    Si1795   Si       0.33872    0.11390    0.64596    1.000
    N1796    N        0.29868    0.20282    0.66212    1.000
    Si1797   Si       0.33258    0.19216    0.73594    1.000
    N1798    N        0.29146    0.19687    0.72681    1.000
    Si1799   Si       0.34062    0.18898    0.66797    1.000
    N1800    N        0.29452    0.08286    0.76085    1.000
    N1801    N        0.29812    0.07297    0.85959    1.000
    N1802    N        0.29649    0.03309    0.80472    1.000
    Si1803   Si       0.33767    0.01594    0.80093    1.000
    Si1804   Si       0.33396    0.06604    0.75368    1.000
    N1805    N        0.34420    0.02387    0.75797    1.000
    N1806    N        0.30132    0.13742    0.85672    1.000
    Si1807   Si       0.31141    0.15968    0.82216    1.000
    N1808    N        0.31063    0.19855    0.83887    1.000
    Si1809   Si       0.31828    0.22861    0.80731    1.000
    N1810    N        0.28857    0.15412    0.78512    1.000
    N1811    N        0.33828    0.20614    0.77624    1.000
    Si1812   Si       0.29983    0.23018    0.86616    1.000
    Si1813   Si       0.33620    0.08569    0.87675    1.000
    N1814    N        0.32833    0.11130    0.91071    1.000
    Si1815   Si       0.31359    0.09286    0.94678    1.000
    Si1816   Si       0.31114    0.02901    0.91593    1.000
    N1817    N        0.28685    0.06052    0.93334    1.000
    N1818    N        0.28523    0.01111    0.88242    1.000
    N1819    N        0.28633    0.12464    0.96781    1.000
    Si1820   Si       0.33113    0.20989    0.93587    1.000
    N1821    N        0.30377    0.17800    0.92113    1.000
    N1822    N        0.30927    0.22920    0.96668    1.000
    N1823    N        0.33489    0.23068    0.89327    1.000
    Si1824   Si       0.32420    0.15141    0.89299    1.000
    Si1825   Si       0.31542    0.33241    0.04932    1.000
    N1826    N        0.30848    0.37035    0.07104    1.000
    N1827    N        0.30837    0.33969    0.00708    1.000
    N1828    N        0.29529    0.29802    0.06529    1.000
    N1829    N        0.33652    0.27154    0.01054    1.000
    Si1830   Si       0.31597    0.26427    0.04881    1.000
    N1831    N        0.31926    0.48240    0.03873    1.000
    N1832    N        0.32658    0.43720    0.07951    1.000
    Si1833   Si       0.33635    0.39655    0.08985    1.000
    Si1834   Si       0.29244    0.44947    0.05562    1.000
    Si1835   Si       0.32490    0.48718    0.99550    1.000
    Si1836   Si       0.32650    0.32194    0.14693    1.000
    N1837    N        0.30490    0.28954    0.21501    1.000
    N1838    N        0.32763    0.27697    0.14716    1.000
    N1839    N        0.28796    0.34287    0.14944    1.000
    Si1840   Si       0.33990    0.31260    0.22598    1.000
    N1841    N        0.32524    0.39441    0.13085    1.000
    Si1842   Si       0.28684    0.42245    0.20586    1.000
    N1843    N        0.32566    0.40415    0.20328    1.000
    Si1844   Si       0.30315    0.47251    0.15929    1.000
    N1845    N        0.29133    0.46514    0.19968    1.000
    Si1846   Si       0.31585    0.36087    0.29143    1.000
    N1847    N        0.33391    0.35514    0.32983    1.000
    N1848    N        0.33100    0.34620    0.25298    1.000
    N1849    N        0.34230    0.28649    0.34012    1.000
    Si1850   Si       0.32967    0.38773    0.36189    1.000
    N1851    N        0.33226    0.48675    0.33760    1.000
    N1852    N        0.33041    0.40545    0.28142    1.000
    Si1853   Si       0.29505    0.49932    0.35524    1.000
    N1854    N        0.28739    0.39849    0.35993    1.000
    Si1855   Si       0.28611    0.41368    0.28102    1.000
    N1856    N        0.33085    0.50886    0.27232    1.000
    Si1857   Si       0.31257    0.37690    0.44187    1.000
    Si1858   Si       0.30270    0.30830    0.42319    1.000
    N1859    N        0.29839    0.33347    0.46084    1.000
    N1860    N        0.33433    0.37296    0.40391    1.000
    Si1861   Si       0.33009    0.34246    0.48950    1.000
    N1862    N        0.33185    0.38513    0.48135    1.000
    N1863    N        0.28326    0.27125    0.43021    1.000
    Si1864   Si       0.33162    0.48401    0.44322    1.000
    N1865    N        0.29183    0.46486    0.44934    1.000
    N1866    N        0.30806    0.32248    0.52107    1.000
    Si1867   Si       0.32154    0.29589    0.55345    1.000
    N1868    N        0.33451    0.32421    0.58397    1.000
    Si1869   Si       0.31696    0.33170    0.62266    1.000
    N1870    N        0.33542    0.39364    0.55804    1.000
    Si1871   Si       0.29910    0.41801    0.55741    1.000
    Si1872   Si       0.32606    0.46007    0.61019    1.000
    N1873    N        0.31373    0.43904    0.51926    1.000
    N1874    N        0.29236    0.45158    0.58553    1.000
    N1875    N        0.33203    0.50062    0.54098    1.000
    N1876    N        0.32856    0.50302    0.61877    1.000
    N1877    N        0.33381    0.37214    0.62408    1.000
    Si1878   Si       0.31693    0.29907    0.69764    1.000
    N1879    N        0.30038    0.31516    0.73294    1.000
    N1880    N        0.33120    0.31459    0.65859    1.000
    N1881    N        0.29029    0.26659    0.68507    1.000
    N1882    N        0.29050    0.49399    0.67348    1.000
    Si1883   Si       0.34145    0.40086    0.65602    1.000
    N1884    N        0.33230    0.39542    0.69807    1.000
    N1885    N        0.31707    0.43817    0.64560    1.000
    Si1886   Si       0.29156    0.46297    0.74026    1.000
    Si1887   Si       0.29189    0.39146    0.71273    1.000
    Si1888   Si       0.28157    0.45053    0.66811    1.000
    Si1889   Si       0.31672    0.29986    0.83341    1.000
    N1890    N        0.29643    0.32864    0.80750    1.000
    Si1891   Si       0.31123    0.33931    0.76597    1.000
    Si1892   Si       0.29385    0.35615    0.84920    1.000
    N1893    N        0.31824    0.32540    0.87113    1.000
    N1894    N        0.30901    0.38052    0.75304    1.000
    N1895    N        0.29564    0.26190    0.83376    1.000
    Si1896   Si       0.29530    0.41979    0.84615    1.000
    N1897    N        0.33646    0.42611    0.84676    1.000
    N1898    N        0.32756    0.48577    0.75090    1.000
    N1899    N        0.28781    0.51162    0.80528    1.000
    N1900    N        0.30249    0.28964    0.94107    1.000
    N1901    N        0.31948    0.35670    0.93756    1.000
    Si1902   Si       0.31993    0.31648    0.91424    1.000
    Si1903   Si       0.33652    0.35232    0.97600    1.000
    Si1904   Si       0.32964    0.26779    0.96819    1.000
    Si1905   Si       0.32442    0.38926    0.90920    1.000
    N1906    N        0.29048    0.48085    0.96928    1.000
    N1907    N        0.32481    0.42562    0.92984    1.000
    N1908    N        0.31643    0.49042    0.90879    1.000
    N1909    N        0.29488    0.38979    0.87787    1.000
    Si1910   Si       0.29694    0.45923    0.93191    1.000
    N1911    N        0.30484    0.61522    0.09784    1.000
    N1912    N        0.30978    0.59487    0.02554    1.000
    N1913    N        0.30790    0.54490    0.08013    1.000
    Si1914   Si       0.33023    0.61489    0.06006    1.000
    Si1915   Si       0.33153    0.53386    0.11451    1.000
    Si1916   Si       0.29451    0.51413    0.05318    1.000
    Si1917   Si       0.31749    0.71026    0.07511    1.000
    N1918    N        0.30001    0.70657    0.03356    1.000
    N1919    N        0.30436    0.68719    0.11116    1.000
    Si1920   Si       0.33001    0.68415    0.01045    1.000
    N1921    N        0.30964    0.75047    0.08903    1.000
    Si1922   Si       0.32080    0.64866    0.11831    1.000
    N1923    N        0.29768    0.57808    0.17478    1.000
    N1924    N        0.31816    0.62300    0.22666    1.000
    N1925    N        0.32207    0.55198    0.23032    1.000
    N1926    N        0.30830    0.51512    0.14641    1.000
    Si1927   Si       0.33673    0.59015    0.16373    1.000
    Si1928   Si       0.28332    0.60238    0.20665    1.000
    Si1929   Si       0.31843    0.65681    0.19321    1.000
    N1930    N        0.34187    0.68269    0.22596    1.000
    N1931    N        0.33690    0.63580    0.15916    1.000
    N1932    N        0.29637    0.70005    0.18346    1.000
    Si1933   Si       0.30391    0.71926    0.14255    1.000
    Si1934   Si       0.31064    0.71944    0.22104    1.000
    Si1935   Si       0.31688    0.61603    0.30633    1.000
    N1936    N        0.32686    0.61338    0.35082    1.000
    Si1937   Si       0.29786    0.53379    0.26213    1.000
    N1938    N        0.33911    0.58714    0.28083    1.000
    N1939    N        0.33312    0.71307    0.32077    1.000
    Si1940   Si       0.29493    0.71244    0.34238    1.000
    N1941    N        0.33768    0.65139    0.29440    1.000
    Si1942   Si       0.30915    0.64919    0.37089    1.000
    N1943    N        0.30326    0.53637    0.38200    1.000
    Si1944   Si       0.33627    0.54965    0.40640    1.000
    Si1945   Si       0.28952    0.60617    0.43031    1.000
    N1946    N        0.29118    0.60774    0.47245    1.000
    N1947    N        0.32851    0.59037    0.41885    1.000
    Si1948   Si       0.32329    0.63121    0.48643    1.000
    N1949    N        0.30490    0.72475    0.38298    1.000
    Si1950   Si       0.33758    0.74839    0.45942    1.000
    Si1951   Si       0.34389    0.71052    0.39201    1.000
    Si1952   Si       0.32604    0.58742    0.54665    1.000
    N1953    N        0.30159    0.61916    0.56499    1.000
    N1954    N        0.29804    0.56123    0.52293    1.000
    Si1955   Si       0.32566    0.52344    0.58035    1.000
    Si1956   Si       0.29115    0.51872    0.53125    1.000
    N1957    N        0.29617    0.66771    0.61427    1.000
    Si1958   Si       0.30365    0.66311    0.57167    1.000
    N1959    N        0.33129    0.69534    0.56138    1.000
    Si1960   Si       0.33464    0.72830    0.59096    1.000
    N1961    N        0.31111    0.66843    0.50573    1.000
    Si1962   Si       0.34274    0.69513    0.51757    1.000
    N1963    N        0.32918    0.73414    0.49909    1.000
    Si1964   Si       0.30256    0.57986    0.72556    1.000
    N1965    N        0.32331    0.61334    0.65220    1.000
    Si1966   Si       0.31011    0.52544    0.65232    1.000
    Si1967   Si       0.28722    0.59179    0.66347    1.000
    N1968    N        0.28754    0.55742    0.63047    1.000
    N1969    N        0.28812    0.61768    0.71066    1.000
    Si1970   Si       0.30182    0.75257    0.66687    1.000
    Si1971   Si       0.31953    0.65528    0.64796    1.000
    N1972    N        0.29681    0.68042    0.74725    1.000
    N1973    N        0.30651    0.73188    0.62798    1.000
    N1974    N        0.32111    0.73968    0.70348    1.000
    Si1975   Si       0.30128    0.72322    0.73891    1.000
    N1976    N        0.29494    0.67780    0.67548    1.000
    Si1977   Si       0.30678    0.59315    0.79742    1.000
    N1978    N        0.30693    0.56982    0.83527    1.000
    Si1979   Si       0.31373    0.52291    0.77270    1.000
    N1980    N        0.29358    0.56403    0.76451    1.000
    N1981    N        0.33375    0.61918    0.87156    1.000
    Si1982   Si       0.34015    0.55566    0.86191    1.000
    Si1983   Si       0.29859    0.59422    0.87529    1.000
    Si1984   Si       0.30080    0.71820    0.84246    1.000
    N1985    N        0.33091    0.73956    0.76803    1.000
    Si1986   Si       0.33161    0.66216    0.86205    1.000
    Si1987   Si       0.29607    0.66976    0.79086    1.000
    N1988    N        0.33614    0.66828    0.81654    1.000
    N1989    N        0.29160    0.68302    0.86723    1.000
    N1990    N        0.31287    0.56215    0.89776    1.000
    Si1991   Si       0.29097    0.52666    0.90994    1.000
    Si1992   Si       0.32560    0.61175    0.98931    1.000
    N1993    N        0.29094    0.60207    0.96206    1.000
    Si1994   Si       0.34108    0.71797    0.90244    1.000
    N1995    N        0.30162    0.72164    0.92209    1.000
    N1996    N        0.31547    0.65647    0.98232    1.000
    Si1997   Si       0.29516    0.86309    0.01284    1.000
    Si1998   Si       0.33135    0.87354    0.07127    1.000
    N1999    N        0.28995    0.87157    0.08910    1.000
    N2000    N        0.31410    0.82510    0.00373    1.000
    N2001    N        0.32754    0.88476    0.03075    1.000
    Si2002   Si       0.31124    0.92488    0.02491    1.000
    Si2003   Si       0.32418    0.99065    0.05083    1.000
    N2004    N        0.33842    0.95098    0.04756    1.000
    N2005    N        0.33595    0.79746    0.13119    1.000
    Si2006   Si       0.32424    0.87012    0.22992    1.000
    Si2007   Si       0.29162    0.79655    0.13913    1.000
    N2008    N        0.31012    0.76565    0.21243    1.000
    Si2009   Si       0.33194    0.79369    0.24175    1.000
    N2010    N        0.28894    0.88048    0.20213    1.000
    N2011    N        0.31052    0.83215    0.24774    1.000
    Si2012   Si       0.30357    0.95709    0.15838    1.000
    Si2013   Si       0.34436    0.90424    0.13362    1.000
    N2014    N        0.33718    0.98242    0.16232    1.000
    N2015    N        0.29689    0.94913    0.20012    1.000
    N2016    N        0.30503    0.91978    0.13661    1.000
    Si2017   Si       0.32054    0.97455    0.22803    1.000
    N2018    N        0.29628    0.82595    0.31737    1.000
    N2019    N        0.32506    0.87413    0.35283    1.000
    Si2020   Si       0.33448    0.83386    0.34078    1.000
    N2021    N        0.32716    0.76436    0.27335    1.000
    N2022    N        0.33872    0.80312    0.37135    1.000
    Si2023   Si       0.31697    0.00668    0.29512    1.000
    N2024    N        0.30782    0.96941    0.27119    1.000
    Si2025   Si       0.32645    0.93289    0.28972    1.000
    N2026    N        0.30334    0.99677    0.33511    1.000
    Si2027   Si       0.29300    0.90346    0.34341    1.000
    N2028    N        0.33461    0.93847    0.33338    1.000
    Si2029   Si       0.31571    0.96528    0.36416    1.000
    N2030    N        0.33272    0.90581    0.25451    1.000
    Si2031   Si       0.33785    0.83443    0.47609    1.000
    N2032    N        0.32214    0.83835    0.43461    1.000
    N2033    N        0.30988    0.77208    0.43089    1.000
    N2034    N        0.32448    0.87518    0.48312    1.000
    Si2035   Si       0.31443    0.80868    0.40601    1.000
    Si2036   Si       0.30955    0.88042    0.44180    1.000
    N2037    N        0.31343    0.96146    0.45369    1.000
    N2038    N        0.29622    0.00245    0.39556    1.000
    N2039    N        0.28582    0.93416    0.37464    1.000
    N2040    N        0.33712    0.90577    0.41975    1.000
    Si2041   Si       0.30590    0.95695    0.49643    1.000
    N2042    N        0.30369    0.82565    0.59510    1.000
    Si2043   Si       0.31884    0.76799    0.52649    1.000
    Si2044   Si       0.29825    0.86480    0.61656    1.000
    N2045    N        0.33493    0.76631    0.56738    1.000
    Si2046   Si       0.34052    0.80261    0.59466    1.000
    N2047    N        0.28535    0.85344    0.53724    1.000
    N2048    N        0.33905    0.79695    0.49771    1.000
    Si2049   Si       0.30829    0.88936    0.52064    1.000
    N2050    N        0.31069    0.95914    0.57730    1.000
    Si2051   Si       0.31731    0.94483    0.61765    1.000
    N2052    N        0.34046    0.90452    0.54719    1.000
    Si2053   Si       0.34426    0.94695    0.55268    1.000
    N2054    N        0.34431    0.96249    0.51238    1.000
    Si2055   Si       0.30718    0.87245    0.68292    1.000
    N2056    N        0.30060    0.79572    0.66493    1.000
    N2057    N        0.28668    0.84739    0.71252    1.000
    N2058    N        0.33887    0.85235    0.66044    1.000
    Si2059   Si       0.30602    0.84361    0.75045    1.000
    Si2060   Si       0.31867    0.98527    0.66288    1.000
    N2061    N        0.31917    0.90308    0.63004    1.000
    N2062    N        0.32374    0.97642    0.70629    1.000
    Si2063   Si       0.30957    0.93997    0.72279    1.000
    N2064    N        0.28770    0.96075    0.64596    1.000
    N2065    N        0.32616    0.90581    0.70280    1.000
    Si2066   Si       0.29890    0.78814    0.85441    1.000
    N2067    N        0.33064    0.78445    0.82557    1.000
    N2068    N        0.30232    0.80343    0.76408    1.000
    Si2069   Si       0.33305    0.78060    0.78272    1.000
    N2070    N        0.33251    0.97581    0.81618    1.000
    Si2071   Si       0.32354    0.93514    0.80215    1.000
    N2072    N        0.33150    0.92774    0.75862    1.000
    N2073    N        0.29825    0.76416    0.98540    1.000
    N2074    N        0.31249    0.87314    0.87748    1.000
    N2075    N        0.32621    0.80458    0.88709    1.000
    Si2076   Si       0.30708    0.83837    0.90639    1.000
    N2077    N        0.33216    0.84882    0.93960    1.000
    N2078    N        0.33517    0.95288    0.87999    1.000
    Si2079   Si       0.30642    0.98982    0.98078    1.000
    Si2080   Si       0.28749    0.92305    0.95880    1.000
    Si2081   Si       0.34094    0.95768    0.92224    1.000
    N2082    N        0.32188    0.99485    0.93964    1.000
    N2083    N        0.31818    0.91954    0.92881    1.000
    N2084    N        0.30455    0.94799    0.98895    1.000
    Si2085   Si       0.30718    0.91747    0.88351    1.000
    N2086    N        0.35898    0.06380    0.03872    1.000
    N2087    N        0.36588    0.06977    0.11028    1.000
    Si2088   Si       0.35545    0.11268    0.11171    1.000
    Si2089   Si       0.39673    0.12935    0.05001    1.000
    Si2090   Si       0.40241    0.06214    0.03839    1.000
    N2091    N        0.38067    0.13453    0.00891    1.000
    Si2092   Si       0.34352    0.05161    0.07823    1.000
    N2093    N        0.36136    0.13640    0.07381    1.000
    N2094    N        0.39343    0.20937    0.07888    1.000
    Si2095   Si       0.35342    0.21101    0.09343    1.000
    N2096    N        0.39504    0.20642    0.00696    1.000
    N2097    N        0.36250    0.05238    0.17517    1.000
    Si2098   Si       0.35600    0.08496    0.20417    1.000
    Si2099   Si       0.39072    0.05164    0.14093    1.000
    N2100    N        0.39391    0.10545    0.20849    1.000
    N2101    N        0.37768    0.12761    0.14496    1.000
    Si2102   Si       0.37506    0.24319    0.22510    1.000
    N2103    N        0.34630    0.23254    0.19415    1.000
    Si2104   Si       0.35458    0.19435    0.17388    1.000
    N2105    N        0.38703    0.17390    0.19659    1.000
    N2106    N        0.36697    0.20665    0.13328    1.000
    Si2107   Si       0.40238    0.13615    0.17871    1.000
    N2108    N        0.37102    0.08142    0.31285    1.000
    Si2109   Si       0.38193    0.06942    0.35410    1.000
    Si2110   Si       0.36777    0.05763    0.27663    1.000
    Si2111   Si       0.38571    0.12331    0.31226    1.000
    N2112    N        0.36016    0.01496    0.28518    1.000
    Si2113   Si       0.37076    0.21791    0.29435    1.000
    N2114    N        0.36027    0.21176    0.25268    1.000
    N2115    N        0.34965    0.14840    0.31145    1.000
    N2116    N        0.39753    0.25329    0.29669    1.000
    N2117    N        0.36944    0.17951    0.37030    1.000
    N2118    N        0.36768    0.03016    0.37054    1.000
    N2119    N        0.36316    0.09774    0.38143    1.000
    Si2120   Si       0.37853    0.05494    0.46680    1.000
    N2121    N        0.37689    0.09717    0.44588    1.000
    N2122    N        0.35103    0.04253    0.43364    1.000
    N2123    N        0.39133    0.01435    0.48081    1.000
    Si2124   Si       0.34504    0.08347    0.41923    1.000
    Si2125   Si       0.35775    0.13261    0.46380    1.000
    N2126    N        0.39610    0.19637    0.43637    1.000
    Si2127   Si       0.36597    0.20726    0.40537    1.000
    N2128    N        0.34750    0.15035    0.42381    1.000
    Si2129   Si       0.37818    0.13815    0.38837    1.000
    N2130    N        0.38021    0.24736    0.39158    1.000
    N2131    N        0.37545    0.14733    0.49998    1.000
    N2132    N        0.37122    0.07064    0.57715    1.000
    N2133    N        0.36510    0.07221    0.50677    1.000
    Si2134   Si       0.38825    0.06085    0.61566    1.000
    Si2135   Si       0.39547    0.07438    0.54048    1.000
    N2136    N        0.34551    0.12854    0.60652    1.000
    N2137    N        0.36770    0.17755    0.56484    1.000
    N2138    N        0.38616    0.23070    0.50139    1.000
    Si2139   Si       0.34636    0.15762    0.53152    1.000
    Si2140   Si       0.34350    0.17184    0.60135    1.000
    Si2141   Si       0.34385    0.23240    0.50818    1.000
    Si2142   Si       0.34415    0.05338    0.67753    1.000
    N2143    N        0.39299    0.01969    0.62957    1.000
    N2144    N        0.36410    0.07893    0.64772    1.000
    N2145    N        0.37064    0.02477    0.69356    1.000
    Si2146   Si       0.37863    0.24711    0.69831    1.000
    N2147    N        0.34715    0.14933    0.74014    1.000
    Si2148   Si       0.39469    0.22283    0.63586    1.000
    N2149    N        0.35251    0.21426    0.70104    1.000
    N2150    N        0.36240    0.19625    0.63176    1.000
    N2151    N        0.34069    0.14535    0.67192    1.000
    N2152    N        0.37423    0.03333    0.81864    1.000
    N2153    N        0.36878    0.10133    0.84888    1.000
    Si2154   Si       0.38430    0.07614    0.81423    1.000
    N2155    N        0.35990    0.08883    0.78108    1.000
    Si2156   Si       0.36547    0.13242    0.77565    1.000
    Si2157   Si       0.38383    0.14412    0.85050    1.000
    N2158    N        0.35959    0.23282    0.82537    1.000
    Si2159   Si       0.37342    0.19763    0.80251    1.000
    N2160    N        0.35561    0.15366    0.81329    1.000
    Si2161   Si       0.36934    0.21122    0.86495    1.000
    N2162    N        0.39899    0.18803    0.83900    1.000
    Si2163   Si       0.39165    0.04124    0.89754    1.000
    Si2164   Si       0.38246    0.10212    0.97953    1.000
    N2165    N        0.34810    0.04748    0.89743    1.000
    N2166    N        0.34479    0.08213    0.97403    1.000
    N2167    N        0.40071    0.12264    0.94413    1.000
    N2168    N        0.36594    0.25153    0.95047    1.000
    N2169    N        0.39630    0.24044    0.88309    1.000
    N2170    N        0.36423    0.16640    0.88480    1.000
    Si2171   Si       0.39704    0.23944    0.97884    1.000
    Si2172   Si       0.36964    0.17364    0.99537    1.000
    Si2173   Si       0.38605    0.16290    0.92506    1.000
    N2174    N        0.36063    0.17926    0.95397    1.000
    Si2175   Si       0.36737    0.26120    0.90733    1.000
    Si2176   Si       0.37680    0.33808    0.08166    1.000
    Si2177   Si       0.36997    0.29895    0.01268    1.000
    N2178    N        0.35760    0.32272    0.04657    1.000
    N2179    N        0.35484    0.31932    0.11432    1.000
    Si2180   Si       0.35783    0.27478    0.11582    1.000
    N2181    N        0.37872    0.37982    0.09059    1.000
    N2182    N        0.39972    0.26458    0.12014    1.000
    Si2183   Si       0.39214    0.45586    0.00712    1.000
    Si2184   Si       0.35053    0.47339    0.06802    1.000
    N2185    N        0.38873    0.46641    0.04938    1.000
    N2186    N        0.35459    0.50088    0.10171    1.000
    N2187    N        0.39650    0.44361    0.11460    1.000
    Si2188   Si       0.38623    0.34767    0.17205    1.000
    N2189    N        0.34991    0.33028    0.18338    1.000
    N2190    N        0.37151    0.28312    0.24039    1.000
    N2191    N        0.34231    0.45500    0.15481    1.000
    Si2192   Si       0.34298    0.38681    0.24111    1.000
    Si2193   Si       0.37232    0.47562    0.13384    1.000
    N2194    N        0.38220    0.50149    0.21541    1.000
    N2195    N        0.38498    0.39017    0.16112    1.000
    Si2196   Si       0.34685    0.41358    0.16456    1.000
    Si2197   Si       0.40310    0.40026    0.12129    1.000
    Si2198   Si       0.36462    0.32401    0.33087    1.000
    N2199    N        0.38930    0.32568    0.29518    1.000
    Si2200   Si       0.40081    0.29042    0.27293    1.000
    N2201    N        0.38516    0.32447    0.37100    1.000
    Si2202   Si       0.35388    0.46344    0.36694    1.000
    N2203    N        0.38114    0.46029    0.29266    1.000
    Si2204   Si       0.36496    0.42103    0.30613    1.000
    Si2205   Si       0.35705    0.49517    0.30336    1.000
    N2206    N        0.34986    0.42340    0.34849    1.000
    N2207    N        0.39130    0.48838    0.36338    1.000
    N2208    N        0.39820    0.39348    0.31340    1.000
    N2209    N        0.38656    0.38681    0.24704    1.000
    Si2210   Si       0.36915    0.34654    0.40425    1.000
    Si2211   Si       0.36374    0.28511    0.45454    1.000
    Si2212   Si       0.36294    0.28456    0.37968    1.000
    N2213    N        0.34608    0.30402    0.41744    1.000
    N2214    N        0.36723    0.32407    0.47808    1.000
    N2215    N        0.39792    0.37684    0.42019    1.000
    N2216    N        0.34434    0.46656    0.40849    1.000
    N2217    N        0.35870    0.47478    0.47629    1.000
    N2218    N        0.38800    0.37676    0.51713    1.000
    Si2219   Si       0.35395    0.36396    0.58458    1.000
    N2220    N        0.39656    0.35468    0.59211    1.000
    Si2221   Si       0.39485    0.26358    0.53010    1.000
    N2222    N        0.34901    0.26217    0.54097    1.000
    N2223    N        0.36271    0.45175    0.58890    1.000
    N2224    N        0.37931    0.43961    0.52379    1.000
    Si2225   Si       0.35194    0.40337    0.51741    1.000
    Si2226   Si       0.39828    0.45281    0.56653    1.000
    Si2227   Si       0.34608    0.46812    0.51740    1.000
    Si2228   Si       0.37914    0.30460    0.74222    1.000
    N2229    N        0.39321    0.37189    0.72225    1.000
    Si2230   Si       0.36982    0.30060    0.66600    1.000
    N2231    N        0.35984    0.28560    0.70907    1.000
    N2232    N        0.39828    0.33478    0.66122    1.000
    N2233    N        0.38292    0.25929    0.65637    1.000
    N2234    N        0.38402    0.40686    0.64735    1.000
    Si2235   Si       0.35192    0.38585    0.73506    1.000
    N2236    N        0.38263    0.47925    0.66433    1.000
    N2237    N        0.36214    0.30053    0.83017    1.000
    Si2238   Si       0.37470    0.33563    0.80291    1.000
    N2239    N        0.35408    0.33568    0.76401    1.000
    N2240    N        0.35687    0.35943    0.83450    1.000
    N2241    N        0.38974    0.27748    0.77232    1.000
    Si2242   Si       0.38484    0.26767    0.81548    1.000
    Si2243   Si       0.36374    0.32569    0.86701    1.000
    N2244    N        0.36925    0.47382    0.80282    1.000
    Si2245   Si       0.37214    0.44974    0.83753    1.000
    Si2246   Si       0.36791    0.39441    0.85285    1.000
    N2247    N        0.37136    0.41685    0.76096    1.000
    Si2248   Si       0.36665    0.46247    0.76079    1.000
    N2249    N        0.36539    0.31814    0.97492    1.000
    N2250    N        0.36322    0.30426    0.91064    1.000
    Si2251   Si       0.39462    0.32237    0.94046    1.000
    Si2252   Si       0.35716    0.49168    0.89285    1.000
    N2253    N        0.36568    0.38291    0.89488    1.000
    N2254    N        0.39439    0.42596    0.93843    1.000
    N2255    N        0.38626    0.46406    0.87775    1.000
    N2256    N        0.36014    0.38648    0.98103    1.000
    N2257    N        0.35348    0.45477    0.98849    1.000
    Si2258   Si       0.35570    0.42265    0.95913    1.000
    N2259    N        0.36874    0.59600    0.06709    1.000
    Si2260   Si       0.38520    0.58314    0.10411    1.000
    Si2261   Si       0.38927    0.61036    0.03161    1.000
    Si2262   Si       0.37495    0.67011    0.06804    1.000
    N2263    N        0.36250    0.71211    0.06851    1.000
    Si2264   Si       0.38617    0.74618    0.05629    1.000
    N2265    N        0.36322    0.65625    0.10663    1.000
    N2266    N        0.34235    0.65295    0.04240    1.000
    N2267    N        0.36606    0.58404    0.19328    1.000
    Si2268   Si       0.35060    0.58929    0.23503    1.000
    N2269    N        0.35193    0.56725    0.12940    1.000
    Si2270   Si       0.35853    0.52590    0.24143    1.000
    Si2271   Si       0.37752    0.70691    0.23300    1.000
    Si2272   Si       0.38379    0.72306    0.16342    1.000
    N2273    N        0.39357    0.67988    0.16950    1.000
    Si2274   Si       0.37816    0.64630    0.14474    1.000
    N2275    N        0.37815    0.73985    0.20529    1.000
    N2276    N        0.34537    0.72979    0.14222    1.000
    N2277    N        0.37688    0.53311    0.31172    1.000
    Si2278   Si       0.37750    0.57236    0.29406    1.000
    Si2279   Si       0.36631    0.59761    0.35964    1.000
    Si2280   Si       0.39376    0.53090    0.35121    1.000
    N2281    N        0.39454    0.60117    0.32501    1.000
    N2282    N        0.38489    0.55842    0.25277    1.000
    N2283    N        0.37970    0.62540    0.24646    1.000
    N2284    N        0.38002    0.71829    0.27276    1.000
    Si2285   Si       0.35384    0.74045    0.29799    1.000
    Si2286   Si       0.35301    0.67594    0.32737    1.000
    N2287    N        0.39633    0.67642    0.31981    1.000
    N2288    N        0.34584    0.67252    0.37082    1.000
    Si2289   Si       0.34468    0.64830    0.25182    1.000
    N2290    N        0.36801    0.55679    0.37551    1.000
    Si2291   Si       0.36540    0.61029    0.42898    1.000
    N2292    N        0.38812    0.61711    0.39328    1.000
    N2293    N        0.39211    0.58622    0.45551    1.000
    Si2294   Si       0.38221    0.51234    0.47131    1.000
    N2295    N        0.34517    0.52508    0.44199    1.000
    N2296    N        0.34944    0.64229    0.45256    1.000
    N2297    N        0.34596    0.70918    0.43723    1.000
    N2298    N        0.37240    0.74227    0.38772    1.000
    Si2299   Si       0.37399    0.68014    0.45786    1.000
    Si2300   Si       0.39661    0.73578    0.42466    1.000
    Si2301   Si       0.38827    0.56169    0.59119    1.000
    N2302    N        0.38648    0.54260    0.50293    1.000
    N2303    N        0.39660    0.52626    0.61548    1.000
    N2304    N        0.34672    0.60194    0.51190    1.000
    N2305    N        0.39210    0.59746    0.61533    1.000
    N2306    N        0.34609    0.56104    0.57508    1.000
    Si2307   Si       0.38649    0.58684    0.49889    1.000
    Si2308   Si       0.38702    0.68085    0.60699    1.000
    N2309    N        0.37199    0.72313    0.60752    1.000
    N2310    N        0.39689    0.66872    0.56668    1.000
    N2311    N        0.37982    0.68163    0.50041    1.000
    N2312    N        0.38632    0.59903    0.68171    1.000
    Si2313   Si       0.37119    0.56067    0.69507    1.000
    Si2314   Si       0.36644    0.61442    0.64643    1.000
    N2315    N        0.34826    0.54208    0.66362    1.000
    N2316    N        0.39633    0.53015    0.71419    1.000
    N2317    N        0.34640    0.57060    0.72849    1.000
    Si2318   Si       0.36658    0.51002    0.63973    1.000
    Si2319   Si       0.38871    0.75601    0.63059    1.000
    N2320    N        0.38676    0.74707    0.67313    1.000
    N2321    N        0.36253    0.65898    0.63489    1.000
    N2322    N        0.38990    0.73411    0.73398    1.000
    Si2323   Si       0.36069    0.75501    0.70721    1.000
    Si2324   Si       0.36556    0.57464    0.76870    1.000
    Si2325   Si       0.37383    0.51396    0.81802    1.000
    N2326    N        0.35324    0.53953    0.78844    1.000
    N2327    N        0.35075    0.51451    0.85506    1.000
    N2328    N        0.38102    0.57076    0.87023    1.000
    N2329    N        0.34598    0.60945    0.78672    1.000
    Si2330   Si       0.36647    0.64763    0.79441    1.000
    Si2331   Si       0.37010    0.72207    0.76993    1.000
    N2332    N        0.37795    0.67707    0.76301    1.000
    Si2333   Si       0.38490    0.73404    0.84829    1.000
    N2334    N        0.39220    0.73099    0.80450    1.000
    N2335    N        0.34254    0.72476    0.85832    1.000
    N2336    N        0.38230    0.59628    0.92491    1.000
    Si2337   Si       0.37326    0.61202    0.88743    1.000
    N2338    N        0.37494    0.51801    0.92286    1.000
    Si2339   Si       0.38667    0.51537    0.96592    1.000
    N2340    N        0.34991    0.52246    0.98826    1.000
    Si2341   Si       0.39717    0.55566    0.91407    1.000
    Si2342   Si       0.39715    0.59346    0.96539    1.000
    N2343    N        0.36852    0.60644    0.99390    1.000
    N2344    N        0.37098    0.73390    0.92943    1.000
    N2345    N        0.35173    0.71506    0.99109    1.000
    Si2346   Si       0.38560    0.70845    0.96281    1.000
    N2347    N        0.35539    0.67646    0.89743    1.000
    Si2348   Si       0.34098    0.76038    0.99548    1.000
    N2349    N        0.36230    0.77425    0.03247    1.000
    Si2350   Si       0.37282    0.81579    0.04252    1.000
    N2351    N        0.38517    0.77255    0.09285    1.000
    N2352    N        0.37841    0.84232    0.00327    1.000
    N2353    N        0.35194    0.83459    0.07591    1.000
    Si2354   Si       0.36311    0.82958    0.11886    1.000
    Si2355   Si       0.34603    0.76116    0.11109    1.000
    Si2356   Si       0.36795    0.88402    0.00889    1.000
    Si2357   Si       0.37499    0.93276    0.06533    1.000
    N2358    N        0.39348    0.90660    0.03694    1.000
    N2359    N        0.35507    0.90260    0.09306    1.000
    Si2360   Si       0.39493    0.00090    0.08936    1.000
    N2361    N        0.35176    0.00787    0.08186    1.000
    Si2362   Si       0.39528    0.83223    0.22872    1.000
    N2363    N        0.36616    0.86408    0.21687    1.000
    N2364    N        0.34919    0.86080    0.14582    1.000
    Si2365   Si       0.37531    0.87787    0.17755    1.000
    Si2366   Si       0.37120    0.95954    0.18005    1.000
    N2367    N        0.35942    0.95794    0.22157    1.000
    N2368    N        0.36467    0.91812    0.16887    1.000
    N2369    N        0.40070    0.00952    0.13310    1.000
    N2370    N        0.37436    0.83461    0.32640    1.000
    Si2371   Si       0.37342    0.77959    0.36262    1.000
    N2372    N        0.37491    0.76919    0.32205    1.000
    Si2373   Si       0.38672    0.80392    0.29699    1.000
    N2374    N        0.37392    0.80455    0.25356    1.000
    Si2375   Si       0.40151    0.84162    0.36091    1.000
    N2376    N        0.37255    0.94111    0.28628    1.000
    Si2377   Si       0.37870    0.93796    0.32985    1.000
    N2378    N        0.38662    0.91000    0.36213    1.000
    Si2379   Si       0.38822    0.98320    0.28793    1.000
    N2380    N        0.39349    0.97855    0.33294    1.000
    Si2381   Si       0.37173    0.92263    0.24581    1.000
    N2382    N        0.38504    0.83447    0.47284    1.000
    N2383    N        0.38104    0.85600    0.39642    1.000
    Si2384   Si       0.38512    0.78982    0.48683    1.000
    N2385    N        0.37993    0.76032    0.45744    1.000
    Si2386   Si       0.35477    0.88912    0.38254    1.000
    Si2387   Si       0.37938    0.97421    0.48967    1.000
    Si2388   Si       0.34452    0.94796    0.42890    1.000
    Si2389   Si       0.38663    0.99122    0.37270    1.000
    N2390    N        0.38071    0.95354    0.45168    1.000
    N2391    N        0.35040    0.97162    0.39213    1.000
    N2392    N        0.36229    0.82851    0.56802    1.000
    Si2393   Si       0.36812    0.87185    0.56121    1.000
    Si2394   Si       0.40169    0.81941    0.55133    1.000
    N2395    N        0.37672    0.88501    0.60144    1.000
    N2396    N        0.37907    0.96271    0.57588    1.000
    Si2397   Si       0.38525    0.97769    0.61541    1.000
    N2398    N        0.36395    0.79211    0.63083    1.000
    Si2399   Si       0.37200    0.82244    0.73666    1.000
    N2400    N        0.35810    0.79747    0.70528    1.000
    N2401    N        0.34841    0.85708    0.74514    1.000
    Si2402   Si       0.34289    0.80945    0.66567    1.000
    Si2403   Si       0.35274    0.89730    0.73589    1.000
    Si2404   Si       0.35661    0.88775    0.64037    1.000
    N2405    N        0.39303    0.97662    0.74194    1.000
    N2406    N        0.39268    0.90538    0.65665    1.000
    N2407    N        0.34897    0.96772    0.63676    1.000
    Si2408   Si       0.35748    0.99815    0.72590    1.000
    N2409    N        0.39244    0.90929    0.72785    1.000
    N2410    N        0.37096    0.84231    0.84436    1.000
    N2411    N        0.37312    0.79768    0.77259    1.000
    Si2412   Si       0.35712    0.80276    0.85393    1.000
    N2413    N        0.39164    0.77639    0.85841    1.000
    Si2414   Si       0.35085    0.87880    0.85803    1.000
    N2415    N        0.39744    0.96390    0.81781    1.000
    Si2416   Si       0.36442    0.95149    0.84532    1.000
    N2417    N        0.34618    0.91363    0.83241    1.000
    N2418    N        0.40204    0.94173    0.87291    1.000
    N2419    N        0.39811    0.00567    0.87400    1.000
    N2420    N        0.36113    0.78687    0.96706    1.000
    Si2421   Si       0.39331    0.76643    0.94796    1.000
    Si2422   Si       0.34756    0.82697    0.97417    1.000
    Si2423   Si       0.40265    0.92432    0.95615    1.000
    Si2424   Si       0.34762    0.88814    0.93175    1.000
    N2425    N        0.36853    0.90153    0.96936    1.000
    N2426    N        0.37196    0.88756    0.89619    1.000
    N2427    N        0.38125    0.95818    0.93485    1.000
    N2428    N        0.41587    0.09401    0.06410    1.000
    N2429    N        0.41931    0.02843    0.06184    1.000
    Si2430   Si       0.43870    0.08623    0.10184    1.000
    Si2431   Si       0.46238    0.02573    0.06632    1.000
    N2432    N        0.42873    0.16001    0.05039    1.000
    Si2433   Si       0.41623    0.20229    0.04376    1.000
    N2434    N        0.44837    0.23117    0.04061    1.000
    N2435    N        0.45399    0.21305    0.10530    1.000
    N2436    N        0.45871    0.10268    0.23824    1.000
    N2437    N        0.42963    0.02552    0.19677    1.000
    N2438    N        0.43027    0.06983    0.14116    1.000
    Si2439   Si       0.42973    0.02518    0.24178    1.000
    Si2440   Si       0.45578    0.04872    0.16919    1.000
    Si2441   Si       0.41630    0.09769    0.24591    1.000
    Si2442   Si       0.42397    0.19760    0.20299    1.000
    Si2443   Si       0.41145    0.22066    0.12050    1.000
    N2444    N        0.43164    0.20882    0.16210    1.000
    N2445    N        0.44322    0.17049    0.23207    1.000
    N2446    N        0.41739    0.23607    0.22176    1.000
    N2447    N        0.44535    0.13510    0.17395    1.000
    N2448    N        0.42534    0.07365    0.35607    1.000
    N2449    N        0.44753    0.01265    0.31634    1.000
    N2450    N        0.40953    0.12859    0.27610    1.000
    Si2451   Si       0.45598    0.05192    0.33594    1.000
    N2452    N        0.40755    0.05824    0.25848    1.000
    N2453    N        0.40649    0.13447    0.34862    1.000
    Si2454   Si       0.43201    0.24506    0.32300    1.000
    Si2455   Si       0.42973    0.16785    0.27503    1.000
    N2456    N        0.43358    0.21330    0.35610    1.000
    Si2457   Si       0.40978    0.17800    0.34652    1.000
    N2458    N        0.40211    0.18821    0.30321    1.000
    Si2459   Si       0.43655    0.11120    0.37765    1.000
    N2460    N        0.42446    0.06768    0.47486    1.000
    Si2461   Si       0.42199    0.10426    0.44633    1.000
    N2462    N        0.45267    0.08770    0.41543    1.000
    Si2463   Si       0.42902    0.02920    0.49534    1.000
    N2464    N        0.41562    0.13790    0.41105    1.000
    Si2465   Si       0.43156    0.16844    0.43712    1.000
    Si2466   Si       0.42624    0.24513    0.38620    1.000
    N2467    N        0.44614    0.21392    0.47102    1.000
    N2468    N        0.43375    0.14087    0.47097    1.000
    Si2469   Si       0.40459    0.22798    0.46347    1.000
    N2470    N        0.41688    0.11492    0.54459    1.000
    N2471    N        0.42106    0.03975    0.53942    1.000
    Si2472   Si       0.43431    0.12164    0.58398    1.000
    N2473    N        0.42481    0.08492    0.61148    1.000
    N2474    N        0.45288    0.02710    0.59839    1.000
    Si2475   Si       0.45929    0.02014    0.55296    1.000
    Si2476   Si       0.41657    0.14670    0.51272    1.000
    N2477    N        0.43094    0.18170    0.53575    1.000
    N2478    N        0.43458    0.16239    0.60103    1.000
    N2479    N        0.43646    0.24895    0.53776    1.000
    N2480    N        0.41180    0.22887    0.59550    1.000
    Si2481   Si       0.41065    0.18842    0.57365    1.000
    Si2482   Si       0.44571    0.25735    0.58001    1.000
    Si2483   Si       0.45280    0.21529    0.51449    1.000
    N2484    N        0.44526    0.02933    0.74131    1.000
    Si2485   Si       0.45650    0.06242    0.71428    1.000
    Si2486   Si       0.44587    0.08876    0.64992    1.000
    N2487    N        0.44860    0.10005    0.73079    1.000
    N2488    N        0.43088    0.05997    0.67879    1.000
    N2489    N        0.44379    0.12968    0.66462    1.000
    Si2490   Si       0.40744    0.02400    0.67220    1.000
    Si2491   Si       0.45664    0.13503    0.70581    1.000
    N2492    N        0.41709    0.23933    0.71591    1.000
    N2493    N        0.43774    0.17073    0.72241    1.000
    Si2494   Si       0.44796    0.16708    0.64145    1.000
    Si2495   Si       0.44410    0.20869    0.70098    1.000
    N2496    N        0.42576    0.20124    0.66003    1.000
    N2497    N        0.42302    0.07350    0.79378    1.000
    Si2498   Si       0.44021    0.10610    0.77201    1.000
    Si2499   Si       0.45086    0.04162    0.78202    1.000
    N2500    N        0.42744    0.13405    0.85802    1.000
    N2501    N        0.40908    0.13778    0.77595    1.000
    Si2502   Si       0.42813    0.17548    0.76508    1.000
    Si2503   Si       0.44000    0.17239    0.84111    1.000
    Si2504   Si       0.42023    0.24893    0.75852    1.000
    Si2505   Si       0.43577    0.24233    0.86491    1.000
    N2506    N        0.40582    0.21023    0.77463    1.000
    N2507    N        0.45630    0.17293    0.79875    1.000
    N2508    N        0.46018    0.20712    0.86043    1.000
    N2509    N        0.42685    0.25758    0.82473    1.000
    Si2510   Si       0.44808    0.09933    0.87624    1.000
    N2511    N        0.42064    0.06911    0.88421    1.000
    Si2512   Si       0.42892    0.04007    0.97174    1.000
    N2513    N        0.40322    0.03249    0.93796    1.000
    Si2514   Si       0.44141    0.13528    0.94138    1.000
    N2515    N        0.41011    0.06871    0.99728    1.000
    Si2516   Si       0.45533    0.19647    0.95570    1.000
    N2517    N        0.43377    0.23407    0.95324    1.000
    N2518    N        0.42777    0.17559    0.92690    1.000
    N2519    N        0.41676    0.32011    0.07906    1.000
    Si2520   Si       0.44330    0.33730    0.04924    1.000
    N2521    N        0.42118    0.35574    0.01834    1.000
    Si2522   Si       0.44579    0.26968    0.01902    1.000
    Si2523   Si       0.42553    0.29987    0.11519    1.000
    N2524    N        0.40543    0.27527    0.00356    1.000
    N2525    N        0.44138    0.42440    0.06269    1.000
    Si2526   Si       0.41871    0.45564    0.07971    1.000
    N2527    N        0.44098    0.49144    0.09056    1.000
    N2528    N        0.41910    0.42224    0.99875    1.000
    Si2529   Si       0.45818    0.43501    0.02294    1.000
    Si2530   Si       0.44020    0.32231    0.18087    1.000
    N2531    N        0.41463    0.34625    0.20488    1.000
    N2532    N        0.41330    0.32481    0.14662    1.000
    Si2533   Si       0.45233    0.26351    0.22548    1.000
    N2534    N        0.45510    0.28346    0.18647    1.000
    Si2535   Si       0.42436    0.38095    0.22618    1.000
    N2536    N        0.44598    0.39357    0.12649    1.000
    N2537    N        0.45176    0.40523    0.20300    1.000
    N2538    N        0.44223    0.47014    0.19595    1.000
    Si2539   Si       0.41583    0.50310    0.18980    1.000
    N2540    N        0.40314    0.50513    0.14824    1.000
    N2541    N        0.44217    0.36452    0.26468    1.000
    N2542    N        0.43222    0.27631    0.35519    1.000
    N2543    N        0.44273    0.35304    0.35125    1.000
    N2544    N        0.44173    0.29075    0.25669    1.000
    Si2545   Si       0.43088    0.31707    0.37098    1.000
    Si2546   Si       0.40122    0.36522    0.28121    1.000
    N2547    N        0.44881    0.46932    0.32565    1.000
    Si2548   Si       0.42992    0.39288    0.34389    1.000
    Si2549   Si       0.43058    0.46669    0.36363    1.000
    Si2550   Si       0.42469    0.46917    0.28772    1.000
    N2551    N        0.44582    0.43811    0.26261    1.000
    N2552    N        0.40394    0.26846    0.44884    1.000
    N2553    N        0.44056    0.31850    0.41530    1.000
    N2554    N        0.43369    0.34280    0.47501    1.000
    Si2555   Si       0.43692    0.35683    0.43288    1.000
    Si2556   Si       0.44290    0.28503    0.44179    1.000
    N2557    N        0.42062    0.42527    0.37385    1.000
    N2558    N        0.45792    0.39434    0.42542    1.000
    Si2559   Si       0.40737    0.44745    0.48643    1.000
    Si2560   Si       0.41882    0.41550    0.41589    1.000
    N2561    N        0.41858    0.44887    0.44374    1.000
    N2562    N        0.45341    0.49298    0.39253    1.000
    Si2563   Si       0.43872    0.48630    0.43426    1.000
    N2564    N        0.41894    0.49073    0.49770    1.000
    Si2565   Si       0.42258    0.32839    0.56710    1.000
    N2566    N        0.44437    0.35807    0.54162    1.000
    N2567    N        0.44851    0.29912    0.58799    1.000
    N2568    N        0.40043    0.30666    0.53494    1.000
    Si2569   Si       0.39953    0.33638    0.50176    1.000
    N2570    N        0.41638    0.49457    0.56056    1.000
    Si2571   Si       0.42805    0.49989    0.60102    1.000
    Si2572   Si       0.42282    0.39457    0.53108    1.000
    N2573    N        0.42583    0.41732    0.56648    1.000
    Si2574   Si       0.45099    0.42241    0.60162    1.000
    N2575    N        0.44012    0.42182    0.50115    1.000
    N2576    N        0.42418    0.45750    0.61355    1.000
    N2577    N        0.45790    0.36583    0.69729    1.000
    Si2578   Si       0.41877    0.34605    0.69754    1.000
    N2579    N        0.41899    0.31290    0.72480    1.000
    Si2580   Si       0.40496    0.36858    0.63301    1.000
    N2581    N        0.44742    0.50787    0.68214    1.000
    Si2582   Si       0.40443    0.44372    0.65210    1.000
    N2583    N        0.44560    0.38614    0.62819    1.000
    Si2584   Si       0.40634    0.49106    0.69795    1.000
    N2585    N        0.43896    0.44424    0.67790    1.000
    N2586    N        0.40211    0.46851    0.73559    1.000
    N2587    N        0.41087    0.35431    0.78806    1.000
    Si2588   Si       0.45475    0.35320    0.79936    1.000
    N2589    N        0.45928    0.26935    0.76484    1.000
    N2590    N        0.40115    0.41554    0.83453    1.000
    N2591    N        0.44050    0.46047    0.79270    1.000
    Si2592   Si       0.44028    0.42928    0.82199    1.000
    Si2593   Si       0.44502    0.50277    0.80124    1.000
    Si2594   Si       0.40673    0.38936    0.76069    1.000
    N2595    N        0.45305    0.45417    0.85568    1.000
    N2596    N        0.44440    0.40872    0.75108    1.000
    Si2597   Si       0.43973    0.45196    0.74993    1.000
    N2598    N        0.40759    0.33046    0.87408    1.000
    N2599    N        0.41254    0.36126    0.95095    1.000
    Si2600   Si       0.44361    0.31239    0.89031    1.000
    N2601    N        0.42999    0.29776    0.92951    1.000
    Si2602   Si       0.40323    0.37971    0.98943    1.000
    Si2603   Si       0.45792    0.26959    0.94519    1.000
    Si2604   Si       0.40262    0.38855    0.91836    1.000
    N2605    N        0.44192    0.46980    0.91923    1.000
    N2606    N        0.41390    0.48314    0.97853    1.000
    Si2607   Si       0.43012    0.44537    0.95507    1.000
    N2608    N        0.43791    0.40339    0.89803    1.000
    Si2609   Si       0.42496    0.44468    0.88794    1.000
    N2610    N        0.42565    0.58559    0.02942    1.000
    Si2611   Si       0.44526    0.57469    0.06800    1.000
    N2612    N        0.42073    0.55902    0.09950    1.000
    Si2613   Si       0.45689    0.59862    0.00379    1.000
    N2614    N        0.45233    0.61476    0.08481    1.000
    Si2615   Si       0.43101    0.52081    0.11955    1.000
    N2616    N        0.43028    0.74602    0.04692    1.000
    N2617    N        0.40944    0.64927    0.04908    1.000
    N2618    N        0.45356    0.71580    0.11603    1.000
    Si2619   Si       0.45623    0.64743    0.05653    1.000
    Si2620   Si       0.44001    0.76010    0.00594    1.000
    Si2621   Si       0.44603    0.60829    0.12976    1.000
    N2622    N        0.43723    0.53633    0.20622    1.000
    N2623    N        0.40129    0.61185    0.13308    1.000
    Si2624   Si       0.42488    0.54389    0.24725    1.000
    N2625    N        0.41338    0.68130    0.23439    1.000
    Si2626   Si       0.41988    0.63761    0.24570    1.000
    Si2627   Si       0.45287    0.75508    0.13559    1.000
    N2628    N        0.41596    0.75228    0.15741    1.000
    Si2629   Si       0.42863    0.67452    0.19460    1.000
    N2630    N        0.44475    0.63386    0.21053    1.000
    N2631    N        0.44212    0.75380    0.22324    1.000
    N2632    N        0.45969    0.64645    0.14527    1.000
    N2633    N        0.43674    0.53927    0.34385    1.000
    N2634    N        0.45407    0.56831    0.27249    1.000
    Si2635   Si       0.45732    0.53484    0.30210    1.000
    N2636    N        0.43325    0.50990    0.27505    1.000
    N2637    N        0.44875    0.63192    0.35615    1.000
    Si2638   Si       0.42075    0.63593    0.32313    1.000
    N2639    N        0.43878    0.64686    0.28370    1.000
    N2640    N        0.44554    0.72614    0.28444    1.000
    Si2641   Si       0.41643    0.69292    0.28149    1.000
    Si2642   Si       0.43137    0.61612    0.39293    1.000
    Si2643   Si       0.42764    0.56315    0.44364    1.000
    N2644    N        0.41640    0.52191    0.44234    1.000
    N2645    N        0.44139    0.57220    0.40263    1.000
    Si2646   Si       0.45397    0.53675    0.38264    1.000
    N2647    N        0.46140    0.57939    0.46523    1.000
    N2648    N        0.45004    0.63830    0.42484    1.000
    N2649    N        0.40872    0.69346    0.43304    1.000
    N2650    N        0.43619    0.75229    0.41116    1.000
    Si2651   Si       0.45175    0.68113    0.43256    1.000
    Si2652   Si       0.43326    0.60114    0.55158    1.000
    N2653    N        0.41537    0.56252    0.55741    1.000
    Si2654   Si       0.41731    0.52554    0.52967    1.000
    N2655    N        0.41031    0.61852    0.51928    1.000
    N2656    N        0.45306    0.61431    0.59051    1.000
    N2657    N        0.46120    0.53399    0.51575    1.000
    N2658    N        0.45146    0.67177    0.51921    1.000
    Si2659   Si       0.40862    0.66256    0.52551    1.000
    Si2660   Si       0.45620    0.71871    0.61905    1.000
    N2661    N        0.43204    0.75633    0.62268    1.000
    Si2662   Si       0.43518    0.60553    0.62947    1.000
    Si2663   Si       0.42772    0.60971    0.69880    1.000
    N2664    N        0.44808    0.57355    0.70986    1.000
    Si2665   Si       0.42785    0.54798    0.73961    1.000
    N2666    N        0.44244    0.63093    0.66360    1.000
    N2667    N        0.45655    0.56751    0.64572    1.000
    N2668    N        0.42253    0.69039    0.69779    1.000
    N2669    N        0.42519    0.68712    0.62704    1.000
    N2670    N        0.42427    0.63527    0.73531    1.000
    Si2671   Si       0.41474    0.67975    0.74010    1.000
    Si2672   Si       0.41847    0.73359    0.69943    1.000
    Si2673   Si       0.44257    0.67279    0.66404    1.000
    N2674    N        0.45375    0.75773    0.70418    1.000
    Si2675   Si       0.42660    0.61412    0.77446    1.000
    N2676    N        0.44033    0.58823    0.84075    1.000
    Si2677   Si       0.42037    0.55410    0.85780    1.000
    N2678    N        0.41452    0.52026    0.82952    1.000
    N2679    N        0.45087    0.51905    0.76191    1.000
    Si2680   Si       0.42986    0.63110    0.84188    1.000
    N2681    N        0.40982    0.57658    0.76627    1.000
    N2682    N        0.40630    0.63444    0.80571    1.000
    N2683    N        0.44595    0.69929    0.76467    1.000
    Si2684   Si       0.43321    0.73281    0.79139    1.000
    N2685    N        0.41529    0.70995    0.87026    1.000
    Si2686   Si       0.45875    0.71918    0.86053    1.000
    N2687    N        0.43408    0.61716    0.97244    1.000
    N2688    N        0.43384    0.54131    0.89783    1.000
    N2689    N        0.40983    0.55211    0.96115    1.000
    Si2690   Si       0.45770    0.51116    0.91789    1.000
    Si2691   Si       0.44377    0.65569    0.95505    1.000
    N2692    N        0.40995    0.67907    0.94118    1.000
    N2693    N        0.40413    0.64031    0.87582    1.000
    N2694    N        0.41343    0.73990    0.97626    1.000
    Si2695   Si       0.39968    0.67813    0.89709    1.000
    Si2696   Si       0.42078    0.79948    0.09114    1.000
    Si2697   Si       0.42343    0.83683    0.01078    1.000
    N2698    N        0.41514    0.81925    0.05254    1.000
    N2699    N        0.45797    0.78070    0.10117    1.000
    N2700    N        0.44090    0.87226    0.99737    1.000
    Si2701   Si       0.43426    0.91161    0.01829    1.000
    Si2702   Si       0.44865    0.95034    0.08424    1.000
    N2703    N        0.40673    0.96054    0.07841    1.000
    N2704    N        0.45840    0.92462    0.04992    1.000
    N2705    N        0.40880    0.82537    0.12583    1.000
    Si2706   Si       0.41021    0.76848    0.19734    1.000
    Si2707   Si       0.43025    0.83730    0.16178    1.000
    N2708    N        0.41636    0.87910    0.16431    1.000
    N2709    N        0.40994    0.81146    0.19403    1.000
    N2710    N        0.43370    0.85140    0.24619    1.000
    N2711    N        0.45628    0.93010    0.12472    1.000
    Si2712   Si       0.42990    0.99536    0.16096    1.000
    Si2713   Si       0.43810    0.91791    0.16368    1.000
    Si2714   Si       0.42964    0.95990    0.22100    1.000
    N2715    N        0.41378    0.92114    0.23406    1.000
    Si2716   Si       0.44558    0.89172    0.23373    1.000
    N2717    N        0.41933    0.95510    0.17910    1.000
    N2718    N        0.42802    0.79743    0.28878    1.000
    N2719    N        0.43699    0.86549    0.35920    1.000
    Si2720   Si       0.44915    0.76478    0.26650    1.000
    N2721    N        0.41079    0.79959    0.36868    1.000
    N2722    N        0.43957    0.93320    0.33204    1.000
    Si2723   Si       0.44021    0.97802    0.34465    1.000
    N2724    N        0.41692    0.98704    0.25476    1.000
    Si2725   Si       0.43044    0.90750    0.36526    1.000
    N2726    N        0.45392    0.78370    0.46750    1.000
    Si2727   Si       0.44812    0.78037    0.37647    1.000
    N2728    N        0.44090    0.84118    0.42455    1.000
    N2729    N        0.45217    0.84901    0.49346    1.000
    Si2730   Si       0.41071    0.86131    0.49668    1.000
    Si2731   Si       0.40073    0.85505    0.43578    1.000
    Si2732   Si       0.45704    0.98176    0.42206    1.000
    N2733    N        0.44731    0.95605    0.45774    1.000
    N2734    N        0.40911    0.89028    0.46275    1.000
    Si2735   Si       0.41540    0.92762    0.44438    1.000
    N2736    N        0.43952    0.91813    0.40718    1.000
    N2737    N        0.42796    0.98773    0.38858    1.000
    Si2738   Si       0.43254    0.86950    0.57556    1.000
    N2739    N        0.42690    0.82145    0.58546    1.000
    N2740    N        0.41389    0.79199    0.51986    1.000
    Si2741   Si       0.44903    0.79387    0.61074    1.000
    Si2742   Si       0.45369    0.78047    0.51122    1.000
    N2743    N        0.44132    0.87933    0.61809    1.000
    N2744    N        0.40610    0.86157    0.53908    1.000
    Si2745   Si       0.45213    0.98498    0.60988    1.000
    N2746    N        0.41279    0.95910    0.51391    1.000
    Si2747   Si       0.41705    0.95397    0.55648    1.000
    N2748    N        0.42619    0.91413    0.57020    1.000
    Si2749   Si       0.41183    0.91287    0.61401    1.000
    N2750    N        0.42109    0.95660    0.62240    1.000
    N2751    N        0.45516    0.97397    0.56496    1.000
    Si2752   Si       0.45411    0.96267    0.50039    1.000
    N2753    N        0.46333    0.00598    0.50530    1.000
    N2754    N        0.41511    0.82683    0.73683    1.000
    Si2755   Si       0.45004    0.84480    0.72184    1.000
    N2756    N        0.44076    0.86654    0.68428    1.000
    N2757    N        0.45385    0.81072    0.65026    1.000
    N2758    N        0.45031    0.93101    0.69848    1.000
    N2759    N        0.43141    0.99188    0.68684    1.000
    Si2760   Si       0.43401    0.98858    0.73003    1.000
    Si2761   Si       0.41806    0.90326    0.69150    1.000
    N2762    N        0.42754    0.84129    0.79963    1.000
    N2763    N        0.44067    0.77153    0.77606    1.000
    Si2764   Si       0.41562    0.80624    0.77738    1.000
    Si2765   Si       0.41306    0.84944    0.84105    1.000
    Si2766   Si       0.44639    0.87674    0.78653    1.000
    N2767    N        0.45760    0.88271    0.74678    1.000
    N2768    N        0.43642    0.82839    0.87165    1.000
    Si2769   Si       0.40987    0.93847    0.75832    1.000
    N2770    N        0.42754    0.88989    0.85265    1.000
    N2771    N        0.41857    0.91063    0.79200    1.000
    Si2772   Si       0.42029    0.93050    0.83100    1.000
    N2773    N        0.45102    0.95597    0.76008    1.000
    N2774    N        0.44272    0.00881    0.80662    1.000
    Si2775   Si       0.40575    0.00601    0.83012    1.000
    Si2776   Si       0.45203    0.80299    0.95108    1.000
    Si2777   Si       0.42484    0.78759    0.88184    1.000
    N2778    N        0.41918    0.78966    0.92423    1.000
    N2779    N        0.43895    0.80098    0.99186    1.000
    Si2780   Si       0.45517    0.88022    0.95495    1.000
    N2781    N        0.46138    0.84291    0.93594    1.000
    Si2782   Si       0.40573    0.97458    0.90296    1.000
    Si2783   Si       0.45164    0.97028    0.96505    1.000
    N2784    N        0.43247    0.93822    0.98430    1.000
    N2785    N        0.42666    0.89967    0.93026    1.000
    N2786    N        0.44502    0.00415    0.99185    1.000
    Si2787   Si       0.40995    0.90337    0.89052    1.000
    N2788    N        0.44460    0.97356    0.92174    1.000
    N2789    N        0.48527    0.11513    0.03513    1.000
    N2790    N        0.48340    0.04349    0.03264    1.000
    N2791    N        0.47458    0.06108    0.09031    1.000
    Si2792   Si       0.49610    0.08050    0.05509    1.000
    Si2793   Si       0.51136    0.06850    0.11238    1.000
    Si2794   Si       0.49876    0.13446    0.99672    1.000
    N2795    N        0.46119    0.12488    0.10330    1.000
    N2796    N        0.49513    0.17995    0.06192    1.000
    Si2797   Si       0.47811    0.22053    0.07012    1.000
    N2798    N        0.51130    0.24777    0.06993    1.000
    Si2799   Si       0.46712    0.14420    0.06314    1.000
    N2800    N        0.50077    0.09235    0.14573    1.000
    N2801    N        0.48946    0.05539    0.19810    1.000
    Si2802   Si       0.49262    0.01608    0.21939    1.000
    Si2803   Si       0.47671    0.12960    0.14386    1.000
    N2804    N        0.50695    0.12965    0.19963    1.000
    Si2805   Si       0.51602    0.08758    0.18659    1.000
    Si2806   Si       0.51715    0.22802    0.20449    1.000
    Si2807   Si       0.47114    0.20576    0.14512    1.000
    N2808    N        0.49128    0.24768    0.23439    1.000
    N2809    N        0.49611    0.23191    0.16607    1.000
    N2810    N        0.49629    0.16881    0.13918    1.000
    Si2811   Si       0.46666    0.13871    0.21320    1.000
    N2812    N        0.47297    0.08275    0.30481    1.000
    Si2813   Si       0.47905    0.12685    0.31854    1.000
    N2814    N        0.47217    0.03171    0.25558    1.000
    Si2815   Si       0.48229    0.07360    0.26181    1.000
    N2816    N        0.51577    0.03009    0.30912    1.000
    N2817    N        0.47163    0.13007    0.36158    1.000
    Si2818   Si       0.51783    0.02919    0.35281    1.000
    N2819    N        0.47928    0.03781    0.37100    1.000
    Si2820   Si       0.49965    0.24698    0.27607    1.000
    Si2821   Si       0.48785    0.19868    0.31527    1.000
    N2822    N        0.50843    0.18948    0.35254    1.000
    N2823    N        0.46733    0.23677    0.30196    1.000
    N2824    N        0.46607    0.16372    0.30053    1.000
    N2825    N        0.52015    0.21121    0.28914    1.000
    N2826    N        0.47031    0.01797    0.43947    1.000
    Si2827   Si       0.47658    0.05293    0.41226    1.000
    Si2828   Si       0.49517    0.01570    0.47589    1.000
    N2829    N        0.51094    0.05411    0.48689    1.000
    N2830    N        0.51884    0.06366    0.42125    1.000
    N2831    N        0.46122    0.25196    0.41474    1.000
    Si2832   Si       0.47626    0.21815    0.43659    1.000
    N2833    N        0.47149    0.17901    0.41845    1.000
    N2834    N        0.51350    0.22858    0.45385    1.000
    Si2835   Si       0.49275    0.16027    0.38507    1.000
    N2836    N        0.49257    0.04870    0.55675    1.000
    N2837    N        0.47579    0.10998    0.58065    1.000
    Si2838   Si       0.47340    0.06662    0.59632    1.000
    Si2839   Si       0.51371    0.12762    0.56660    1.000
    N2840    N        0.49606    0.20989    0.51794    1.000
    N2841    N        0.47911    0.23047    0.58952    1.000
    Si2842   Si       0.50511    0.21244    0.56025    1.000
    N2843    N        0.51358    0.17039    0.56981    1.000
    N2844    N        0.49904    0.05984    0.70748    1.000
    N2845    N        0.48470    0.07213    0.63916    1.000
    Si2846   Si       0.51649    0.06120    0.66680    1.000
    Si2847   Si       0.52085    0.05643    0.74662    1.000
    Si2848   Si       0.49765    0.25519    0.73926    1.000
    N2849    N        0.49738    0.14533    0.70825    1.000
    N2850    N        0.48704    0.18505    0.64827    1.000
    N2851    N        0.47895    0.25746    0.65682    1.000
    N2852    N        0.48240    0.21780    0.72301    1.000
    Si2853   Si       0.48722    0.22466    0.63081    1.000
    Si2854   Si       0.50899    0.18175    0.72448    1.000
    N2855    N        0.49228    0.05598    0.77855    1.000
    N2856    N        0.47932    0.07823    0.85379    1.000
    N2857    N        0.47695    0.11563    0.79407    1.000
    Si2858   Si       0.50487    0.08220    0.81367    1.000
    Si2859   Si       0.50473    0.04610    0.87026    1.000
    Si2860   Si       0.49540    0.15467    0.79663    1.000
    Si2861   Si       0.50135    0.21357    0.84475    1.000
    N2862    N        0.50301    0.24828    0.81794    1.000
    N2863    N        0.51095    0.17316    0.83533    1.000
    Si2864   Si       0.49265    0.08335    0.93998    1.000
    N2865    N        0.46938    0.05386    0.96180    1.000
    N2866    N        0.46361    0.10683    0.91811    1.000
    N2867    N        0.51620    0.10410    0.97196    1.000
    Si2868   Si       0.48748    0.02505    0.99349    1.000
    N2869    N        0.51843    0.06427    0.90956    1.000
    N2870    N        0.49514    0.21354    0.96404    1.000
    N2871    N        0.46470    0.15510    0.97314    1.000
    Si2872   Si       0.51585    0.25372    0.97105    1.000
    Si2873   Si       0.49231    0.28765    0.07831    1.000
    N2874    N        0.47415    0.36272    0.06578    1.000
    N2875    N        0.50558    0.34868    0.00923    1.000
    Si2876   Si       0.49767    0.30677    0.01020    1.000
    N2877    N        0.46690    0.30039    0.04262    1.000
    Si2878   Si       0.51609    0.35544    0.05292    1.000
    N2879    N        0.46814    0.28798    0.11478    1.000
    N2880    N        0.50004    0.42400    0.02473    1.000
    N2881    N        0.50203    0.42509    0.09314    1.000
    N2882    N        0.50799    0.49300    0.08695    1.000
    Si2883   Si       0.47305    0.50336    0.06235    1.000
    Si2884   Si       0.46628    0.39983    0.08804    1.000
    N2885    N        0.46098    0.47919    0.02786    1.000
    N2886    N        0.47453    0.34765    0.17213    1.000
    Si2887   Si       0.48256    0.27315    0.15451    1.000
    N2888    N        0.49547    0.32840    0.23350    1.000
    Si2889   Si       0.50820    0.32986    0.19132    1.000
    N2890    N        0.51859    0.29645    0.16609    1.000
    Si2891   Si       0.46121    0.44498    0.22225    1.000
    Si2892   Si       0.46563    0.39083    0.16448    1.000
    N2893    N        0.50392    0.45718    0.22457    1.000
    N2894    N        0.50652    0.40533    0.15570    1.000
    Si2895   Si       0.52194    0.49017    0.19786    1.000
    N2896    N        0.51908    0.47493    0.15292    1.000
    Si2897   Si       0.51971    0.43866    0.12939    1.000
    N2898    N        0.49392    0.33306    0.29934    1.000
    Si2899   Si       0.48530    0.34630    0.34027    1.000
    Si2900   Si       0.46744    0.32514    0.26489    1.000
    N2901    N        0.49016    0.31469    0.36783    1.000
    N2902    N        0.51746    0.37451    0.35351    1.000
    Si2903   Si       0.48383    0.44402    0.32393    1.000
    N2904    N        0.50140    0.39943    0.25717    1.000
    N2905    N        0.49394    0.44336    0.36774    1.000
    Si2906   Si       0.46292    0.40102    0.27604    1.000
    N2907    N        0.46517    0.40529    0.31821    1.000
    N2908    N        0.51858    0.44793    0.29793    1.000
    Si2909   Si       0.51186    0.27082    0.46649    1.000
    Si2910   Si       0.49398    0.27919    0.39404    1.000
    N2911    N        0.47191    0.28742    0.47625    1.000
    Si2912   Si       0.47423    0.33016    0.48624    1.000
    N2913    N        0.49722    0.35347    0.45895    1.000
    N2914    N        0.50304    0.42941    0.46826    1.000
    Si2915   Si       0.49916    0.48767    0.38090    1.000
    Si2916   Si       0.51336    0.46943    0.45304    1.000
    Si2917   Si       0.49804    0.39441    0.44411    1.000
    N2918    N        0.47536    0.49108    0.45768    1.000
    Si2919   Si       0.48501    0.31614    0.60543    1.000
    N2920    N        0.50065    0.33108    0.51952    1.000
    Si2921   Si       0.48750    0.36212    0.54736    1.000
    N2922    N        0.49977    0.35486    0.58800    1.000
    N2923    N        0.51766    0.29235    0.59589    1.000
    Si2924   Si       0.48233    0.42741    0.50682    1.000
    N2925    N        0.48605    0.47117    0.52190    1.000
    N2926    N        0.49770    0.40204    0.53768    1.000
    N2927    N        0.48976    0.44049    0.59666    1.000
    Si2928   Si       0.50010    0.47812    0.61655    1.000
    N2929    N        0.46993    0.50919    0.60819    1.000
    Si2930   Si       0.46057    0.49512    0.49763    1.000
    N2931    N        0.49081    0.29200    0.71609    1.000
    N2932    N        0.48075    0.32296    0.64877    1.000
    Si2933   Si       0.49917    0.29265    0.67318    1.000
    Si2934   Si       0.47231    0.36544    0.65584    1.000
    Si2935   Si       0.47505    0.38288    0.73343    1.000
    Si2936   Si       0.46011    0.30732    0.74153    1.000
    N2937    N        0.51285    0.38256    0.65406    1.000
    N2938    N        0.50402    0.47207    0.66052    1.000
    N2939    N        0.51391    0.39967    0.72492    1.000
    Si2940   Si       0.47105    0.47218    0.68669    1.000
    N2941    N        0.47455    0.46966    0.72971    1.000
    Si2942   Si       0.49648    0.32960    0.84740    1.000
    N2943    N        0.47360    0.34617    0.75911    1.000
    Si2944   Si       0.46636    0.27180    0.80877    1.000
    N2945    N        0.46658    0.31550    0.81844    1.000
    Si2946   Si       0.48591    0.48393    0.85575    1.000
    Si2947   Si       0.50723    0.39925    0.82655    1.000
    N2948    N        0.46541    0.39182    0.81527    1.000
    N2949    N        0.48051    0.51030    0.82298    1.000
    N2950    N        0.50887    0.40253    0.87123    1.000
    Si2951   Si       0.50701    0.26905    0.88819    1.000
    N2952    N        0.47249    0.27611    0.98626    1.000
    N2953    N        0.47374    0.34134    0.88089    1.000
    N2954    N        0.49745    0.37520    0.93307    1.000
    N2955    N        0.50421    0.27247    0.93242    1.000
    N2956    N        0.46340    0.27236    0.88080    1.000
    Si2957   Si       0.47507    0.38277    0.89539    1.000
    Si2958   Si       0.51134    0.43749    0.98419    1.000
    N2959    N        0.47051    0.44778    0.97440    1.000
    Si2960   Si       0.45832    0.48937    0.98580    1.000
    Si2961   Si       0.50648    0.55053    0.03038    1.000
    N2962    N        0.47331    0.54546    0.05810    1.000
    N2963    N        0.48280    0.62734    0.02764    1.000
    N2964    N        0.48956    0.57054    0.99560    1.000
    N2965    N        0.50600    0.74075    0.08251    1.000
    Si2966   Si       0.48596    0.70202    0.01231    1.000
    N2967    N        0.46869    0.68924    0.05301    1.000
    N2968    N        0.47954    0.74313    0.00159    1.000
    Si2969   Si       0.46195    0.72865    0.07358    1.000
    N2970    N        0.50833    0.53132    0.19997    1.000
    Si2971   Si       0.47156    0.54672    0.18091    1.000
    N2972    N        0.46864    0.52433    0.14399    1.000
    N2973    N        0.46979    0.58702    0.16464    1.000
    N2974    N        0.51519    0.59507    0.24239    1.000
    Si2975   Si       0.47351    0.62666    0.18086    1.000
    Si2976   Si       0.50510    0.50899    0.12756    1.000
    N2977    N        0.46092    0.69986    0.18440    1.000
    N2978    N        0.51241    0.64457    0.18907    1.000
    N2979    N        0.50889    0.73913    0.23008    1.000
    Si2980   Si       0.47218    0.68747    0.14303    1.000
    N2981    N        0.51443    0.69121    0.13616    1.000
    Si2982   Si       0.47558    0.73676    0.20114    1.000
    N2983    N        0.49830    0.61715    0.30469    1.000
    Si2984   Si       0.49514    0.58254    0.27983    1.000
    N2985    N        0.49900    0.54749    0.30798    1.000
    Si2986   Si       0.47465    0.72414    0.31939    1.000
    Si2987   Si       0.48020    0.65373    0.29004    1.000
    N2988    N        0.47857    0.68238    0.32659    1.000
    Si2989   Si       0.48351    0.66137    0.36507    1.000
    N2990    N        0.50625    0.66898    0.25752    1.000
    N2991    N        0.51210    0.73321    0.29786    1.000
    N2992    N        0.46074    0.75380    0.34646    1.000
    N2993    N        0.49925    0.53475    0.38282    1.000
    Si2994   Si       0.47853    0.61421    0.44595    1.000
    N2995    N        0.51395    0.59845    0.42700    1.000
    Si2996   Si       0.46732    0.75005    0.44301    1.000
    Si2997   Si       0.51710    0.71495    0.40833    1.000
    N2998    N        0.50790    0.75469    0.42850    1.000
    N2999    N        0.49390    0.63939    0.47730    1.000
    N3000    N        0.46723    0.71136    0.46205    1.000
    N3001    N        0.48204    0.69053    0.40004    1.000
    N3002    N        0.47490    0.59839    0.53181    1.000
    Si3003   Si       0.49393    0.60839    0.57387    1.000
    N3004    N        0.50490    0.56787    0.58846    1.000
    Si3005   Si       0.48409    0.56787    0.50121    1.000
    Si3006   Si       0.48572    0.54930    0.62250    1.000
    N3007    N        0.46764    0.74270    0.52497    1.000
    Si3008   Si       0.47515    0.70547    0.50535    1.000
    Si3009   Si       0.48292    0.64052    0.51981    1.000
    Si3010   Si       0.49277    0.75009    0.56151    1.000
    N3011    N        0.48550    0.71426    0.58731    1.000
    N3012    N        0.50512    0.64642    0.55759    1.000
    Si3013   Si       0.51431    0.68097    0.58191    1.000
    N3014    N        0.51915    0.69791    0.50500    1.000
    N3015    N        0.50025    0.53223    0.71538    1.000
    Si3016   Si       0.47149    0.54563    0.68433    1.000
    N3017    N        0.51654    0.61076    0.73107    1.000
    Si3018   Si       0.51972    0.56886    0.73459    1.000
    N3019    N        0.51680    0.55134    0.65288    1.000
    N3020    N        0.47647    0.70051    0.65599    1.000
    Si3021   Si       0.51866    0.68993    0.65875    1.000
    Si3022   Si       0.48516    0.60450    0.82547    1.000
    N3023    N        0.50353    0.56869    0.84409    1.000
    N3024    N        0.46793    0.61686    0.78279    1.000
    N3025    N        0.50612    0.55554    0.77589    1.000
    Si3026   Si       0.51202    0.53814    0.81437    1.000
    Si3027   Si       0.50509    0.63371    0.76779    1.000
    Si3028   Si       0.49017    0.50575    0.74961    1.000
    N3029    N        0.46689    0.71951    0.81796    1.000
    N3030    N        0.47199    0.63912    0.85011    1.000
    N3031    N        0.51309    0.67784    0.77127    1.000
    Si3032   Si       0.48572    0.70845    0.77896    1.000
    N3033    N        0.49865    0.74526    0.75886    1.000
    N3034    N        0.47372    0.51633    0.95679    1.000
    Si3035   Si       0.49999    0.54985    0.95923    1.000
    Si3036   Si       0.50420    0.55483    0.88612    1.000
    N3037    N        0.49370    0.57360    0.92439    1.000
    Si3038   Si       0.50331    0.61544    0.93059    1.000
    N3039    N        0.49188    0.51250    0.88941    1.000
    Si3040   Si       0.50758    0.75370    0.96761    1.000
    N3041    N        0.48823    0.69790    0.88435    1.000
    N3042    N        0.47158    0.64337    0.92332    1.000
    Si3043   Si       0.49115    0.65496    0.88380    1.000
    N3044    N        0.46437    0.68187    0.98195    1.000
    Si3045   Si       0.50055    0.78476    0.08982    1.000
    N3046    N        0.50848    0.87778    0.02943    1.000
    N3047    N        0.51659    0.80551    0.05473    1.000
    Si3048   Si       0.50197    0.91872    0.04478    1.000
    N3049    N        0.47357    0.98654    0.08495    1.000
    N3050    N        0.51663    0.93817    0.00848    1.000
    Si3051   Si       0.50140    0.92532    0.12209    1.000
    Si3052   Si       0.49929    0.99708    0.12176    1.000
    Si3053   Si       0.49563    0.87492    0.18239    1.000
    Si3054   Si       0.50032    0.80336    0.16385    1.000
    N3055    N        0.47428    0.83621    0.17030    1.000
    N3056    N        0.47935    0.76538    0.16791    1.000
    N3057    N        0.50816    0.88907    0.14364    1.000
    N3058    N        0.46606    0.90196    0.19584    1.000
    N3059    N        0.47390    0.97551    0.21974    1.000
    N3060    N        0.46913    0.01125    0.14889    1.000
    Si3061   Si       0.49218    0.94627    0.24632    1.000
    N3062    N        0.49326    0.84298    0.29104    1.000
    N3063    N        0.48500    0.79116    0.26110    1.000
    Si3064   Si       0.45751    0.82591    0.27106    1.000
    Si3065   Si       0.50290    0.88455    0.28757    1.000
    Si3066   Si       0.48134    0.94067    0.31588    1.000
    N3067    N        0.49141    0.96691    0.28337    1.000
    N3068    N        0.48595    0.97017    0.34766    1.000
    N3069    N        0.47695    0.90649    0.26227    1.000
    N3070    N        0.49969    0.90193    0.32732    1.000
    Si3071   Si       0.48415    0.00810    0.29047    1.000
    N3072    N        0.47965    0.80826    0.38035    1.000
    N3073    N        0.50800    0.82720    0.44643    1.000
    Si3074   Si       0.46516    0.82508    0.45911    1.000
    N3075    N        0.49295    0.88215    0.39758    1.000
    Si3076   Si       0.46416    0.84850    0.39002    1.000
    Si3077   Si       0.51799    0.86842    0.43499    1.000
    N3078    N        0.49913    0.90163    0.45716    1.000
    N3079    N        0.49294    0.95817    0.41263    1.000
    Si3080   Si       0.47943    0.91777    0.42233    1.000
    Si3081   Si       0.51438    0.91015    0.49575    1.000
    Si3082   Si       0.48346    0.84681    0.52248    1.000
    N3083    N        0.49132    0.80463    0.51685    1.000
    Si3084   Si       0.50183    0.87392    0.59403    1.000
    N3085    N        0.47435    0.86054    0.56346    1.000
    N3086    N        0.48551    0.78212    0.59026    1.000
    Si3087   Si       0.48901    0.94499    0.55956    1.000
    N3088    N        0.48336    0.93357    0.51914    1.000
    N3089    N        0.49994    0.91786    0.59350    1.000
    Si3090   Si       0.47388    0.78862    0.68246    1.000
    N3091    N        0.50179    0.85829    0.63572    1.000
    N3092    N        0.47804    0.81192    0.72178    1.000
    Si3093   Si       0.46808    0.77304    0.74248    1.000
    N3094    N        0.51728    0.78479    0.68142    1.000
    Si3095   Si       0.46016    0.85449    0.64812    1.000
    Si3096   Si       0.51480    0.93840    0.62957    1.000
    N3097    N        0.49896    0.97479    0.69878    1.000
    N3098    N        0.48252    0.96809    0.63589    1.000
    Si3099   Si       0.46236    0.96466    0.67552    1.000
    N3100    N        0.51258    0.91764    0.73278    1.000
    Si3101   Si       0.46960    0.92400    0.73624    1.000
    N3102    N        0.48266    0.88263    0.81014    1.000
    N3103    N        0.50561    0.98177    0.80620    1.000
    Si3104   Si       0.47009    0.90238    0.84620    1.000
    Si3105   Si       0.50760    0.96270    0.85464    1.000
    Si3106   Si       0.46431    0.97259    0.79950    1.000
    N3107    N        0.46288    0.94437    0.83558    1.000
    N3108    N        0.50261    0.82130    0.88680    1.000
    Si3109   Si       0.49291    0.77963    0.89604    1.000
    N3110    N        0.48510    0.77752    0.93898    1.000
    Si3111   Si       0.46865    0.84636    0.89463    1.000
    N3112    N        0.45950    0.76202    0.87516    1.000
    N3113    N        0.48387    0.88618    0.88313    1.000
    N3114    N        0.49633    0.89860    0.95310    1.000
    Si3115   Si       0.51120    0.90577    0.91066    1.000
    N3116    N        0.49314    0.97877    0.95684    1.000
    Si3117   Si       0.48907    0.98216    0.91392    1.000
    N3118    N        0.49166    0.00495    0.87472    1.000
    N3119    N        0.50866    0.94708    0.89812    1.000
    N3120    N        0.53340    0.08481    0.07839    1.000
    N3121    N        0.56134    0.07166    0.01516    1.000
    Si3122   Si       0.57096    0.07753    0.05703    1.000
    Si3123   Si       0.57271    0.02484    0.10888    1.000
    N3124    N        0.52962    0.02764    0.11596    1.000
    Si3125   Si       0.56630    0.03073    0.99801    1.000
    N3126    N        0.52891    0.00935    0.00258    1.000
    N3127    N        0.53087    0.16250    0.00428    1.000
    N3128    N        0.56833    0.20296    0.05095    1.000
    N3129    N        0.54581    0.15246    0.08893    1.000
    Si3130   Si       0.55200    0.23468    0.07509    1.000
    Si3131   Si       0.53596    0.16987    0.04907    1.000
    N3132    N        0.54989    0.21779    0.11471    1.000
    Si3133   Si       0.55266    0.05289    0.23420    1.000
    N3134    N        0.55748    0.07423    0.19582    1.000
    N3135    N        0.53558    0.01347    0.22413    1.000
    N3136    N        0.55982    0.17524    0.16039    1.000
    Si3137   Si       0.53429    0.17775    0.12153    1.000
    N3138    N        0.53164    0.19145    0.22404    1.000
    Si3139   Si       0.53939    0.15999    0.19688    1.000
    Si3140   Si       0.57230    0.21793    0.15270    1.000
    N3141    N        0.55628    0.24022    0.18577    1.000
    N3142    N        0.57604    0.13984    0.20855    1.000
    N3143    N        0.53316    0.07103    0.35192    1.000
    N3144    N        0.52689    0.07606    0.26135    1.000
    N3145    N        0.52241    0.12370    0.31221    1.000
    Si3146   Si       0.52801    0.07707    0.30611    1.000
    Si3147   Si       0.56513    0.13230    0.31180    1.000
    Si3148   Si       0.53942    0.21916    0.36103    1.000
    Si3149   Si       0.54994    0.19591    0.26294    1.000
    N3150    N        0.57265    0.15951    0.27707    1.000
    N3151    N        0.56931    0.23386    0.32949    1.000
    Si3152   Si       0.56778    0.25855    0.29324    1.000
    N3153    N        0.57767    0.23013    0.26314    1.000
    N3154    N        0.55923    0.10271    0.46935    1.000
    Si3155   Si       0.54147    0.06414    0.45702    1.000
    Si3156   Si       0.53243    0.09228    0.39134    1.000
    N3157    N        0.58196    0.04608    0.45623    1.000
    N3158    N        0.57502    0.09021    0.39050    1.000
    N3159    N        0.54644    0.16646    0.47250    1.000
    N3160    N        0.56666    0.19794    0.38882    1.000
    Si3161   Si       0.56635    0.15400    0.38672    1.000
    N3162    N        0.52707    0.13566    0.39504    1.000
    Si3163   Si       0.52939    0.20577    0.48770    1.000
    N3164    N        0.52900    0.25848    0.38115    1.000
    N3165    N        0.54847    0.11081    0.58981    1.000
    N3166    N        0.55878    0.06215    0.54000    1.000
    N3167    N        0.56738    0.01424    0.59058    1.000
    Si3168   Si       0.54303    0.13151    0.49841    1.000
    Si3169   Si       0.57221    0.10225    0.55587    1.000
    N3170    N        0.51489    0.11276    0.52528    1.000
    Si3171   Si       0.51531    0.06845    0.52776    1.000
    N3172    N        0.54009    0.23764    0.56187    1.000
    N3173    N        0.56792    0.21985    0.50407    1.000
    Si3174   Si       0.56053    0.25408    0.52996    1.000
    Si3175   Si       0.54107    0.25584    0.60181    1.000
    Si3176   Si       0.56213    0.11583    0.63028    1.000
    N3177    N        0.53934    0.02157    0.65998    1.000
    N3178    N        0.54421    0.09245    0.66271    1.000
    N3179    N        0.54217    0.01930    0.73532    1.000
    N3180    N        0.54055    0.25136    0.74331    1.000
    Si3181   Si       0.53051    0.18683    0.65544    1.000
    N3182    N        0.54089    0.19432    0.69831    1.000
    N3183    N        0.55934    0.15851    0.64119    1.000
    Si3184   Si       0.56406    0.22051    0.72144    1.000
    N3185    N        0.53128    0.22662    0.63213    1.000
    N3186    N        0.53674    0.11625    0.81302    1.000
    N3187    N        0.55737    0.06957    0.76856    1.000
    N3188    N        0.52724    0.04469    0.83328    1.000
    Si3189   Si       0.57340    0.10212    0.79319    1.000
    Si3190   Si       0.53976    0.00665    0.81704    1.000
    Si3191   Si       0.54497    0.14934    0.84049    1.000
    Si3192   Si       0.56155    0.16761    0.77445    1.000
    N3193    N        0.57449    0.17161    0.81670    1.000
    N3194    N        0.52200    0.17106    0.76454    1.000
    N3195    N        0.57717    0.25460    0.83392    1.000
    N3196    N        0.56719    0.13140    0.87370    1.000
    Si3197   Si       0.55882    0.09816    0.98018    1.000
    Si3198   Si       0.56057    0.05919    0.91935    1.000
    N3199    N        0.56914    0.09835    0.93626    1.000
    N3200    N        0.57016    0.03461    0.95490    1.000
    Si3201   Si       0.57195    0.23634    0.87364    1.000
    Si3202   Si       0.52861    0.18811    0.97025    1.000
    N3203    N        0.55287    0.22439    0.97661    1.000
    N3204    N        0.53641    0.16560    0.93313    1.000
    Si3205   Si       0.56614    0.13958    0.91688    1.000
    N3206    N        0.52658    0.22965    0.87739    1.000
    Si3207   Si       0.56855    0.31103    0.06541    1.000
    N3208    N        0.52531    0.31510    0.06943    1.000
    N3209    N        0.58141    0.27015    0.07246    1.000
    N3210    N        0.53459    0.28508    0.99988    1.000
    N3211    N        0.54457    0.38442    0.06504    1.000
    Si3212   Si       0.57335    0.38741    0.10002    1.000
    Si3213   Si       0.52586    0.42484    0.05935    1.000
    Si3214   Si       0.54556    0.49146    0.06168    1.000
    N3215    N        0.55935    0.45164    0.04721    1.000
    N3216    N        0.56193    0.43032    0.11767    1.000
    Si3217   Si       0.55926    0.28447    0.17730    1.000
    N3218    N        0.53416    0.36390    0.19985    1.000
    N3219    N        0.57172    0.30565    0.21253    1.000
    N3220    N        0.57444    0.37154    0.14402    1.000
    Si3221   Si       0.52183    0.36483    0.24118    1.000
    Si3222   Si       0.54607    0.39266    0.16975    1.000
    N3223    N        0.56170    0.49127    0.21327    1.000
    N3224    N        0.56922    0.42724    0.17989    1.000
    N3225    N        0.56405    0.32571    0.32577    1.000
    N3226    N        0.55429    0.34731    0.26399    1.000
    N3227    N        0.53042    0.27903    0.28404    1.000
    Si3228   Si       0.53533    0.32098    0.29290    1.000
    Si3229   Si       0.55167    0.35026    0.36179    1.000
    Si3230   Si       0.54634    0.45916    0.32821    1.000
    N3231    N        0.55697    0.42741    0.35380    1.000
    Si3232   Si       0.52527    0.43672    0.25695    1.000
    N3233    N        0.56934    0.43239    0.25055    1.000
    N3234    N        0.52619    0.49423    0.34430    1.000
    N3235    N        0.55911    0.33561    0.47292    1.000
    N3236    N        0.55879    0.32750    0.39981    1.000
    Si3237   Si       0.55491    0.28387    0.40700    1.000
    Si3238   Si       0.53315    0.33995    0.43503    1.000
    N3239    N        0.51760    0.29462    0.43038    1.000
    Si3240   Si       0.56486    0.49678    0.40468    1.000
    Si3241   Si       0.52279    0.40996    0.37648    1.000
    N3242    N        0.52776    0.38731    0.41503    1.000
    N3243    N        0.54095    0.48636    0.48159    1.000
    N3244    N        0.52697    0.47754    0.41283    1.000
    Si3245   Si       0.54160    0.32149    0.50872    1.000
    Si3246   Si       0.52845    0.37562    0.61212    1.000
    N3247    N        0.56403    0.32450    0.54652    1.000
    Si3248   Si       0.55503    0.31593    0.58877    1.000
    N3249    N        0.53906    0.27768    0.49999    1.000
    N3250    N        0.55805    0.34438    0.62096    1.000
    N3251    N        0.57650    0.27915    0.60241    1.000
    Si3252   Si       0.52723    0.48565    0.52306    1.000
    N3253    N        0.54674    0.44903    0.53856    1.000
    N3254    N        0.55153    0.40614    0.59061    1.000
    N3255    N        0.53310    0.49911    0.59875    1.000
    Si3256   Si       0.52167    0.42778    0.56715    1.000
    Si3257   Si       0.57495    0.50893    0.61140    1.000
    N3258    N        0.54234    0.29547    0.67556    1.000
    N3259    N        0.56283    0.35922    0.69303    1.000
    Si3260   Si       0.56284    0.33029    0.66022    1.000
    Si3261   Si       0.54580    0.47363    0.67409    1.000
    Si3262   Si       0.53730    0.39493    0.68700    1.000
    N3263    N        0.55655    0.43054    0.67102    1.000
    N3264    N        0.56858    0.48473    0.71177    1.000
    N3265    N        0.54534    0.30032    0.79127    1.000
    Si3266   Si       0.53926    0.27315    0.82434    1.000
    Si3267   Si       0.55620    0.34130    0.80455    1.000
    N3268    N        0.56187    0.36080    0.76644    1.000
    Si3269   Si       0.56959    0.28034    0.76213    1.000
    N3270    N        0.52282    0.29597    0.85765    1.000
    N3271    N        0.52069    0.35832    0.82507    1.000
    Si3272   Si       0.53968    0.46434    0.80406    1.000
    Si3273   Si       0.54387    0.40274    0.75739    1.000
    N3274    N        0.52913    0.49096    0.76887    1.000
    N3275    N        0.52718    0.42214    0.79579    1.000
    N3276    N        0.57250    0.41191    0.85475    1.000
    N3277    N        0.52169    0.46386    0.84390    1.000
    Si3278   Si       0.54112    0.43548    0.87107    1.000
    N3279    N        0.58058    0.46705    0.81865    1.000
    N3280    N        0.56247    0.36320    0.90065    1.000
    N3281    N        0.55727    0.33852    0.96361    1.000
    Si3282   Si       0.57095    0.30854    0.99125    1.000
    N3283    N        0.57774    0.26739    0.90295    1.000
    Si3284   Si       0.52093    0.36285    0.97137    1.000
    N3285    N        0.54698    0.43471    0.91388    1.000
    Si3286   Si       0.53381    0.39349    0.91231    1.000
    N3287    N        0.53353    0.47328    0.97468    1.000
    Si3288   Si       0.54925    0.50840    0.99257    1.000
    Si3289   Si       0.56352    0.46214    0.94264    1.000
    N3290    N        0.53891    0.40292    0.97315    1.000
    N3291    N        0.57717    0.50073    0.92580    1.000
    N3292    N        0.53426    0.58253    0.04113    1.000
    N3293    N        0.52859    0.51514    0.02886    1.000
    N3294    N        0.56222    0.63037    0.01573    1.000
    Si3295   Si       0.52007    0.61123    0.01029    1.000
    Si3296   Si       0.57519    0.59733    0.04599    1.000
    Si3297   Si       0.57966    0.52455    0.12029    1.000
    N3298    N        0.57907    0.51438    0.07715    1.000
    Si3299   Si       0.55914    0.67055    0.03523    1.000
    N3300    N        0.54526    0.67415    0.07685    1.000
    Si3301   Si       0.53274    0.70950    0.09980    1.000
    N3302    N        0.52976    0.69286    0.00870    1.000
    Si3303   Si       0.55992    0.64261    0.10426    1.000
    N3304    N        0.56673    0.73192    0.11525    1.000
    N3305    N        0.57219    0.76217    0.04857    1.000
    N3306    N        0.53586    0.61244    0.12340    1.000
    N3307    N        0.53863    0.53734    0.12975    1.000
    N3308    N        0.55692    0.57936    0.18738    1.000
    Si3309   Si       0.53359    0.56240    0.22001    1.000
    Si3310   Si       0.54725    0.57621    0.14280    1.000
    Si3311   Si       0.52658    0.63872    0.23251    1.000
    N3312    N        0.56938    0.64797    0.22709    1.000
    Si3313   Si       0.53894    0.66828    0.16372    1.000
    N3314    N        0.56204    0.70125    0.18462    1.000
    N3315    N        0.53786    0.58070    0.35929    1.000
    N3316    N        0.56639    0.60163    0.31000    1.000
    Si3317   Si       0.52771    0.61357    0.33568    1.000
    N3318    N        0.57140    0.54098    0.32249    1.000
    Si3319   Si       0.52651    0.53836    0.33932    1.000
    Si3320   Si       0.57810    0.56445    0.28571    1.000
    N3321    N        0.56399    0.54986    0.24872    1.000
    Si3322   Si       0.55207    0.68046    0.35699    1.000
    N3323    N        0.56685    0.70922    0.26010    1.000
    Si3324   Si       0.53695    0.74839    0.33085    1.000
    N3325    N        0.53558    0.71968    0.36510    1.000
    N3326    N        0.52424    0.64674    0.36282    1.000
    Si3327   Si       0.52213    0.70975    0.26004    1.000
    N3328    N        0.57865    0.74624    0.31900    1.000
    Si3329   Si       0.54356    0.59798    0.45871    1.000
    Si3330   Si       0.52355    0.56619    0.39934    1.000
    N3331    N        0.55899    0.53980    0.40910    1.000
    N3332    N        0.52997    0.56893    0.48752    1.000
    N3333    N        0.58083    0.59785    0.43335    1.000
    N3334    N        0.54296    0.69053    0.43689    1.000
    Si3335   Si       0.52999    0.66776    0.47259    1.000
    N3336    N        0.56105    0.63455    0.47997    1.000
    N3337    N        0.53529    0.52508    0.53914    1.000
    Si3338   Si       0.56086    0.55092    0.51303    1.000
    Si3339   Si       0.53445    0.53839    0.57840    1.000
    N3340    N        0.56802    0.55294    0.60680    1.000
    N3341    N        0.57502    0.62107    0.59168    1.000
    N3342    N        0.57775    0.58307    0.53678    1.000
    N3343    N        0.55120    0.70130    0.57308    1.000
    Si3344   Si       0.54847    0.71615    0.53141    1.000
    Si3345   Si       0.56562    0.71375    0.61043    1.000
    N3346    N        0.53114    0.75490    0.54334    1.000
    N3347    N        0.55994    0.55192    0.73345    1.000
    N3348    N        0.55184    0.61192    0.65763    1.000
    Si3349   Si       0.55650    0.56846    0.64743    1.000
    Si3350   Si       0.54449    0.62605    0.69974    1.000
    Si3351   Si       0.56100    0.51007    0.74616    1.000
    Si3352   Si       0.55942    0.64026    0.62781    1.000
    Si3353   Si       0.56920    0.69520    0.70943    1.000
    N3354    N        0.52238    0.66509    0.62276    1.000
    N3355    N        0.55227    0.73281    0.71507    1.000
    N3356    N        0.54222    0.72447    0.64672    1.000
    Si3357   Si       0.54909    0.75319    0.67660    1.000
    N3358    N        0.53945    0.66997    0.69116    1.000
    N3359    N        0.55512    0.53074    0.81959    1.000
    Si3360   Si       0.56940    0.55434    0.85397    1.000
    N3361    N        0.52344    0.62270    0.80623    1.000
    Si3362   Si       0.56102    0.63355    0.82397    1.000
    N3363    N        0.57776    0.59833    0.84894    1.000
    N3364    N        0.55912    0.73238    0.78726    1.000
    Si3365   Si       0.55433    0.68987    0.78386    1.000
    N3366    N        0.56622    0.67670    0.82399    1.000
    Si3367   Si       0.54216    0.75164    0.75202    1.000
    N3368    N        0.57760    0.67733    0.75017    1.000
    N3369    N        0.57457    0.59632    0.93575    1.000
    N3370    N        0.54257    0.54210    0.96528    1.000
    Si3371   Si       0.56935    0.54922    0.93242    1.000
    Si3372   Si       0.56671    0.60956    0.89204    1.000
    N3373    N        0.55025    0.56061    0.89166    1.000
    Si3374   Si       0.57230    0.62710    0.97022    1.000
    N3375    N        0.52678    0.62863    0.89417    1.000
    N3376    N        0.52307    0.61898    0.96919    1.000
    Si3377   Si       0.52218    0.71667    0.90358    1.000
    Si3378   Si       0.55541    0.70303    0.97444    1.000
    N3379    N        0.52576    0.75553    0.88456    1.000
    N3380    N        0.56111    0.69958    0.88814    1.000
    N3381    N        0.52497    0.71852    0.94676    1.000
    N3382    N        0.57203    0.66882    0.95569    1.000
    N3383    N        0.55078    0.85660    0.08797    1.000
    N3384    N        0.56068    0.83407    0.01857    1.000
    Si3385   Si       0.54928    0.79138    0.02672    1.000
    Si3386   Si       0.53105    0.84742    0.04929    1.000
    Si3387   Si       0.55665    0.82671    0.11856    1.000
    Si3388   Si       0.56005    0.90030    0.08909    1.000
    N3389    N        0.52168    0.92065    0.08241    1.000
    N3390    N        0.51895    0.80290    0.12386    1.000
    N3391    N        0.52603    0.80325    0.20021    1.000
    Si3392   Si       0.55408    0.83665    0.20047    1.000
    N3393    N        0.56907    0.83956    0.15944    1.000
    N3394    N        0.53035    0.87177    0.20871    1.000
    Si3395   Si       0.52052    0.77908    0.23682    1.000
    N3396    N        0.53131    0.94251    0.22529    1.000
    Si3397   Si       0.55784    0.97644    0.21605    1.000
    N3398    N        0.57224    0.91595    0.12803    1.000
    Si3399   Si       0.54853    0.90408    0.23174    1.000
    Si3400   Si       0.56207    0.95681    0.13967    1.000
    N3401    N        0.57420    0.97588    0.17611    1.000
    N3402    N        0.51903    0.96057    0.13492    1.000
    N3403    N        0.54829    0.79801    0.26464    1.000
    N3404    N        0.53865    0.85093    0.36759    1.000
    N3405    N        0.52815    0.79273    0.33240    1.000
    Si3406   Si       0.52126    0.81042    0.37021    1.000
    Si3407   Si       0.51563    0.80680    0.29175    1.000
    N3408    N        0.54238    0.89612    0.27299    1.000
    Si3409   Si       0.52079    0.88897    0.36370    1.000
    Si3410   Si       0.53176    0.79024    0.43891    1.000
    N3411    N        0.55082    0.79934    0.40015    1.000
    N3412    N        0.55109    0.77847    0.47698    1.000
    N3413    N        0.55841    0.87703    0.43216    1.000
    Si3414   Si       0.57562    0.83037    0.38229    1.000
    N3415    N        0.54107    0.00019    0.37311    1.000
    Si3416   Si       0.51693    0.96312    0.37763    1.000
    N3417    N        0.54067    0.92656    0.37508    1.000
    N3418    N        0.52694    0.98848    0.48347    1.000
    Si3419   Si       0.55314    0.86275    0.53985    1.000
    N3420    N        0.56042    0.81868    0.53386    1.000
    Si3421   Si       0.53281    0.78910    0.51552    1.000
    N3422    N        0.54358    0.86409    0.58229    1.000
    N3423    N        0.56746    0.79929    0.60532    1.000
    Si3424   Si       0.57157    0.84423    0.61081    1.000
    N3425    N        0.51972    0.86997    0.51467    1.000
    Si3426   Si       0.56131    0.97171    0.57738    1.000
    Si3427   Si       0.54689    0.96788    0.51514    1.000
    N3428    N        0.52690    0.96486    0.55397    1.000
    N3429    N        0.55399    0.92755    0.49709    1.000
    N3430    N        0.53270    0.85506    0.70559    1.000
    Si3431   Si       0.53400    0.87129    0.66413    1.000
    N3432    N        0.57329    0.86260    0.64921    1.000
    N3433    N        0.54719    0.79562    0.74224    1.000
    Si3434   Si       0.52091    0.81427    0.71443    1.000
    N3435    N        0.52276    0.91429    0.66347    1.000
    Si3436   Si       0.56532    0.00146    0.63143    1.000
    N3437    N        0.56009    0.96409    0.69697    1.000
    N3438    N        0.54970    0.96297    0.61990    1.000
    Si3439   Si       0.53610    0.99977    0.69752    1.000
    Si3440   Si       0.54167    0.88479    0.73645    1.000
    Si3441   Si       0.52549    0.93921    0.69788    1.000
    N3442    N        0.54639    0.85440    0.83812    1.000
    N3443    N        0.57311    0.80003    0.80323    1.000
    Si3444   Si       0.52635    0.88354    0.81359    1.000
    N3445    N        0.55309    0.88322    0.77815    1.000
    N3446    N        0.54938    0.98275    0.85086    1.000
    Si3447   Si       0.56615    0.94245    0.84549    1.000
    N3448    N        0.52787    0.92221    0.83617    1.000
    N3449    N        0.57156    0.81255    0.87565    1.000
    Si3450   Si       0.53764    0.84288    0.87978    1.000
    N3451    N        0.53844    0.77628    0.98641    1.000
    Si3452   Si       0.56769    0.76914    0.87933    1.000
    N3453    N        0.54472    0.87920    0.90319    1.000
    Si3454   Si       0.52697    0.97021    0.98335    1.000
    N3455    N        0.56271    0.89207    0.98197    1.000
    N3456    N        0.56691    0.96355    0.96975    1.000
    Si3457   Si       0.52011    0.89722    0.99049    1.000
    N3458    N        0.59779    0.10615    0.07215    1.000
    Si3459   Si       0.62060    0.01762    0.05179    1.000
    N3460    N        0.58775    0.03869    0.07179    1.000
    Si3461   Si       0.58122    0.13219    0.10316    1.000
    Si3462   Si       0.63469    0.12865    0.06728    1.000
    Si3463   Si       0.63482    0.13109    0.00212    1.000
    N3464    N        0.61919    0.22495    0.01126    1.000
    Si3465   Si       0.61165    0.19780    0.04598    1.000
    N3466    N        0.61330    0.16056    0.10005    1.000
    N3467    N        0.62859    0.16012    0.03470    1.000
    N3468    N        0.63541    0.22498    0.07190    1.000
    Si3469   Si       0.59005    0.07693    0.16757    1.000
    N3470    N        0.62682    0.08760    0.18749    1.000
    N3471    N        0.59239    0.04055    0.14448    1.000
    N3472    N        0.62604    0.02224    0.19784    1.000
    N3473    N        0.58474    0.11340    0.14280    1.000
    Si3474   Si       0.61591    0.01510    0.23999    1.000
    Si3475   Si       0.59453    0.14673    0.16962    1.000
    N3476    N        0.62166    0.18284    0.23225    1.000
    Si3477   Si       0.63369    0.18767    0.12757    1.000
    N3478    N        0.61449    0.22420    0.14335    1.000
    N3479    N        0.63385    0.16397    0.16772    1.000
    Si3480   Si       0.59850    0.14683    0.24507    1.000
    Si3481   Si       0.60850    0.07950    0.28192    1.000
    N3482    N        0.60036    0.03432    0.35507    1.000
    N3483    N        0.61944    0.11250    0.25645    1.000
    N3484    N        0.59255    0.04825    0.25490    1.000
    Si3485   Si       0.57613    0.07193    0.35106    1.000
    N3486    N        0.57686    0.09064    0.31105    1.000
    Si3487   Si       0.61925    0.21917    0.25575    1.000
    Si3488   Si       0.61339    0.23871    0.32778    1.000
    N3489    N        0.58800    0.14500    0.34864    1.000
    Si3490   Si       0.63213    0.14603    0.35139    1.000
    N3491    N        0.63627    0.21535    0.29740    1.000
    N3492    N        0.62154    0.23857    0.37089    1.000
    N3493    N        0.62965    0.08649    0.44151    1.000
    Si3494   Si       0.61215    0.10721    0.40841    1.000
    Si3495   Si       0.59941    0.08357    0.47209    1.000
    Si3496   Si       0.61151    0.01524    0.44603    1.000
    Si3497   Si       0.59874    0.22166    0.40467    1.000
    N3498    N        0.61395    0.20173    0.43958    1.000
    N3499    N        0.61722    0.16033    0.48548    1.000
    N3500    N        0.59563    0.14568    0.41896    1.000
    Si3501   Si       0.58674    0.16759    0.45460    1.000
    N3502    N        0.61266    0.10459    0.57217    1.000
    N3503    N        0.62525    0.03653    0.55222    1.000
    N3504    N        0.61545    0.09143    0.50957    1.000
    Si3505   Si       0.62866    0.12446    0.60655    1.000
    Si3506   Si       0.58270    0.02775    0.55203    1.000
    Si3507   Si       0.61428    0.14383    0.52715    1.000
    Si3508   Si       0.60715    0.21804    0.52104    1.000
    N3509    N        0.61710    0.18479    0.54955    1.000
    N3510    N        0.62447    0.16913    0.61944    1.000
    N3511    N        0.63216    0.23841    0.60018    1.000
    N3512    N        0.57176    0.13738    0.53082    1.000
    N3513    N        0.61671    0.03597    0.73905    1.000
    N3514    N        0.60872    0.11571    0.64385    1.000
    N3515    N        0.62510    0.10703    0.71521    1.000
    N3516    N        0.63233    0.05472    0.66487    1.000
    Si3517   Si       0.63449    0.09493    0.67301    1.000
    N3518    N        0.61315    0.17252    0.69337    1.000
    Si3519   Si       0.61271    0.14591    0.73114    1.000
    Si3520   Si       0.62876    0.21581    0.69616    1.000
    N3521    N        0.59265    0.24117    0.69760    1.000
    Si3522   Si       0.60147    0.15935    0.65465    1.000
    N3523    N        0.60200    0.08947    0.82484    1.000
    Si3524   Si       0.60529    0.11206    0.86452    1.000
    N3525    N        0.58417    0.13297    0.76132    1.000
    Si3526   Si       0.57815    0.03158    0.75713    1.000
    N3527    N        0.57778    0.00485    0.79276    1.000
    N3528    N        0.62775    0.20881    0.81010    1.000
    Si3529   Si       0.61090    0.18188    0.83900    1.000
    Si3530   Si       0.62413    0.19884    0.76874    1.000
    N3531    N        0.58281    0.19855    0.75531    1.000
    Si3532   Si       0.61815    0.25372    0.81686    1.000
    N3533    N        0.62908    0.14499    0.85307    1.000
    N3534    N        0.62351    0.09581    0.90498    1.000
    Si3535   Si       0.61559    0.11737    0.94380    1.000
    N3536    N        0.59520    0.12151    0.98437    1.000
    N3537    N        0.57774    0.04342    0.88520    1.000
    N3538    N        0.60231    0.20549    0.87541    1.000
    Si3539   Si       0.62060    0.19487    0.91400    1.000
    N3540    N        0.61955    0.22973    0.94267    1.000
    Si3541   Si       0.59504    0.23650    0.97809    1.000
    N3542    N        0.60540    0.15712    0.92656    1.000
    Si3543   Si       0.60299    0.36391    0.04774    1.000
    N3544    N        0.58900    0.34337    0.08901    1.000
    Si3545   Si       0.62353    0.26580    0.07480    1.000
    N3546    N        0.58319    0.32731    0.02778    1.000
    N3547    N        0.60942    0.40254    0.07851    1.000
    N3548    N        0.60004    0.39587    0.01603    1.000
    Si3549   Si       0.59674    0.42899    0.04604    1.000
    N3550    N        0.63040    0.45035    0.02955    1.000
    N3551    N        0.58992    0.50465    0.00424    1.000
    Si3552   Si       0.59521    0.33276    0.13223    1.000
    N3553    N        0.60772    0.37139    0.21040    1.000
    Si3554   Si       0.62222    0.26631    0.14605    1.000
    N3555    N        0.62941    0.34543    0.15269    1.000
    N3556    N        0.58603    0.29239    0.14498    1.000
    Si3557   Si       0.58466    0.33930    0.23401    1.000
    Si3558   Si       0.61205    0.38189    0.16845    1.000
    N3559    N        0.61994    0.46572    0.19569    1.000
    Si3560   Si       0.62401    0.50160    0.16910    1.000
    Si3561   Si       0.59260    0.44717    0.14582    1.000
    N3562    N        0.59466    0.48974    0.14070    1.000
    N3563    N        0.62540    0.41632    0.14319    1.000
    Si3564   Si       0.57940    0.45312    0.21253    1.000
    N3565    N        0.60792    0.27759    0.30355    1.000
    Si3566   Si       0.60728    0.31827    0.32757    1.000
    N3567    N        0.62158    0.32469    0.25181    1.000
    N3568    N        0.59031    0.37062    0.36824    1.000
    Si3569   Si       0.63702    0.28721    0.27221    1.000
    N3570    N        0.61527    0.30531    0.36925    1.000
    N3571    N        0.61336    0.40554    0.31058    1.000
    Si3572   Si       0.59806    0.41082    0.35140    1.000
    Si3573   Si       0.59998    0.43699    0.28098    1.000
    N3574    N        0.58248    0.46826    0.30632    1.000
    Si3575   Si       0.59331    0.50403    0.33057    1.000
    N3576    N        0.58991    0.48888    0.37047    1.000
    N3577    N        0.58630    0.26115    0.42231    1.000
    Si3578   Si       0.61977    0.28169    0.44008    1.000
    N3579    N        0.61391    0.32409    0.43796    1.000
    Si3580   Si       0.60444    0.33939    0.39517    1.000
    Si3581   Si       0.59919    0.35029    0.47032    1.000
    N3582    N        0.62694    0.27156    0.47991    1.000
    Si3583   Si       0.58440    0.48707    0.47598    1.000
    N3584    N        0.59465    0.48432    0.43316    1.000
    N3585    N        0.60728    0.38909    0.45026    1.000
    Si3586   Si       0.62777    0.41879    0.47524    1.000
    N3587    N        0.60221    0.44960    0.49131    1.000
    N3588    N        0.63011    0.42801    0.37705    1.000
    Si3589   Si       0.61976    0.47024    0.39778    1.000
    Si3590   Si       0.63220    0.40186    0.41434    1.000
    Si3591   Si       0.59537    0.35405    0.54011    1.000
    N3592    N        0.61153    0.37013    0.57541    1.000
    N3593    N        0.62037    0.33629    0.50696    1.000
    Si3594   Si       0.61300    0.27159    0.58161    1.000
    Si3595   Si       0.62888    0.29302    0.52356    1.000
    N3596    N        0.60347    0.26046    0.54070    1.000
    N3597    N        0.57605    0.38796    0.52045    1.000
    Si3598   Si       0.59441    0.40974    0.58480    1.000
    N3599    N        0.61485    0.43332    0.55354    1.000
    N3600    N        0.60241    0.49956    0.57988    1.000
    Si3601   Si       0.58221    0.43008    0.52469    1.000
    N3602    N        0.61676    0.42359    0.61947    1.000
    N3603    N        0.62446    0.36660    0.73458    1.000
    N3604    N        0.60157    0.30903    0.66422    1.000
    Si3605   Si       0.58305    0.34921    0.72971    1.000
    Si3606   Si       0.58202    0.28306    0.69236    1.000
    N3607    N        0.58018    0.30581    0.72889    1.000
    Si3608   Si       0.59536    0.44301    0.65191    1.000
    Si3609   Si       0.59798    0.45075    0.72077    1.000
    N3610    N        0.62031    0.44233    0.68619    1.000
    N3611    N        0.58015    0.41741    0.74044    1.000
    N3612    N        0.57918    0.48293    0.64440    1.000
    N3613    N        0.61032    0.26736    0.77517    1.000
    N3614    N        0.58843    0.34569    0.83446    1.000
    Si3615   Si       0.58782    0.37278    0.86767    1.000
    Si3616   Si       0.62026    0.40510    0.75742    1.000
    N3617    N        0.61777    0.40848    0.79944    1.000
    Si3618   Si       0.60072    0.43114    0.83102    1.000
    N3619    N        0.63810    0.49415    0.81609    1.000
    N3620    N        0.63594    0.44622    0.74858    1.000
    Si3621   Si       0.59732    0.51077    0.81492    1.000
    N3622    N        0.62783    0.37318    0.88462    1.000
    Si3623   Si       0.61248    0.27512    0.92900    1.000
    Si3624   Si       0.58463    0.34653    0.93200    1.000
    N3625    N        0.61422    0.31830    0.92022    1.000
    N3626    N        0.59517    0.28006    0.97158    1.000
    N3627    N        0.60843    0.37945    0.94888    1.000
    Si3628   Si       0.58353    0.40279    0.97679    1.000
    Si3629   Si       0.61753    0.47428    0.99029    1.000
    N3630    N        0.59371    0.44501    0.96824    1.000
    N3631    N        0.60562    0.56799    0.03941    1.000
    Si3632   Si       0.60170    0.52453    0.04276    1.000
    N3633    N        0.58908    0.62060    0.08051    1.000
    Si3634   Si       0.63154    0.61856    0.07734    1.000
    N3635    N        0.59444    0.69501    0.03411    1.000
    Si3636   Si       0.59603    0.73661    0.02200    1.000
    N3637    N        0.63350    0.75489    0.09906    1.000
    Si3638   Si       0.58942    0.75950    0.08969    1.000
    Si3639   Si       0.63343    0.67860    0.02812    1.000
    N3640    N        0.59209    0.56756    0.13538    1.000
    N3641    N        0.60743    0.53711    0.19109    1.000
    N3642    N        0.62534    0.60390    0.20200    1.000
    Si3643   Si       0.59021    0.52101    0.22679    1.000
    Si3644   Si       0.59985    0.57760    0.17880    1.000
    N3645    N        0.57556    0.66482    0.13898    1.000
    Si3646   Si       0.58400    0.70837    0.14803    1.000
    N3647    N        0.62270    0.72133    0.16331    1.000
    N3648    N        0.62385    0.68098    0.22562    1.000
    Si3649   Si       0.58008    0.69117    0.22392    1.000
    Si3650   Si       0.61126    0.63718    0.22871    1.000
    N3651    N        0.62121    0.56921    0.28299    1.000
    Si3652   Si       0.58094    0.57592    0.34585    1.000
    N3653    N        0.61835    0.62929    0.33874    1.000
    N3654    N        0.62423    0.50779    0.25195    1.000
    N3655    N        0.61823    0.63156    0.27186    1.000
    N3656    N        0.57920    0.67574    0.32188    1.000
    Si3657   Si       0.58990    0.63749    0.30445    1.000
    Si3658   Si       0.59023    0.71028    0.29756    1.000
    N3659    N        0.63300    0.70874    0.29364    1.000
    Si3660   Si       0.61248    0.66865    0.35394    1.000
    N3661    N        0.61389    0.57645    0.37452    1.000
    N3662    N        0.59298    0.52661    0.49453    1.000
    N3663    N        0.62973    0.54748    0.43837    1.000
    Si3664   Si       0.59754    0.56327    0.41527    1.000
    N3665    N        0.62069    0.61472    0.48903    1.000
    Si3666   Si       0.63338    0.53858    0.48148    1.000
    Si3667   Si       0.59778    0.63047    0.45626    1.000
    N3668    N        0.61566    0.66983    0.44675    1.000
    N3669    N        0.59509    0.73765    0.44054    1.000
    Si3670   Si       0.58538    0.69595    0.42841    1.000
    N3671    N        0.58694    0.68348    0.38583    1.000
    Si3672   Si       0.58594    0.75403    0.48036    1.000
    Si3673   Si       0.58996    0.58312    0.57887    1.000
    N3674    N        0.62931    0.57096    0.57986    1.000
    Si3675   Si       0.58526    0.62035    0.51581    1.000
    Si3676   Si       0.61646    0.69273    0.52323    1.000
    N3677    N        0.59005    0.65773    0.53504    1.000
    Si3678   Si       0.59978    0.65745    0.57901    1.000
    Si3679   Si       0.62801    0.73987    0.57886    1.000
    N3680    N        0.60316    0.73772    0.61561    1.000
    N3681    N        0.62833    0.69875    0.56565    1.000
    N3682    N        0.58621    0.72196    0.50952    1.000
    Si3683   Si       0.59291    0.57305    0.71329    1.000
    N3684    N        0.59468    0.56253    0.67098    1.000
    N3685    N        0.62898    0.57127    0.73797    1.000
    N3686    N        0.58221    0.61551    0.71857    1.000
    N3687    N        0.60460    0.69692    0.68446    1.000
    N3688    N        0.58968    0.67617    0.62118    1.000
    Si3689   Si       0.61898    0.70302    0.64314    1.000
    Si3690   Si       0.61326    0.59733    0.82178    1.000
    N3691    N        0.59338    0.62270    0.79330    1.000
    N3692    N        0.61958    0.55855    0.80646    1.000
    Si3693   Si       0.62763    0.53964    0.76685    1.000
    N3694    N        0.60048    0.52403    0.86316    1.000
    N3695    N        0.59682    0.50922    0.77093    1.000
    N3696    N        0.62655    0.69386    0.85892    1.000
    Si3697   Si       0.58333    0.70562    0.85136    1.000
    N3698    N        0.63265    0.73267    0.80070    1.000
    N3699    N        0.58481    0.74780    0.84706    1.000
    Si3700   Si       0.59842    0.63800    0.75196    1.000
    Si3701   Si       0.59320    0.76017    0.80482    1.000
    N3702    N        0.61643    0.54943    0.93113    1.000
    Si3703   Si       0.61833    0.59247    0.93760    1.000
    N3704    N        0.62050    0.62033    0.97183    1.000
    Si3705   Si       0.61348    0.51556    0.90383    1.000
    N3706    N        0.58889    0.73227    0.98010    1.000
    Si3707   Si       0.63027    0.72281    0.96474    1.000
    N3708    N        0.59911    0.64191    0.89573    1.000
    Si3709   Si       0.58642    0.67781    0.91610    1.000
    N3710    N        0.62211    0.70243    0.92651    1.000
    N3711    N        0.62213    0.85147    0.11650    1.000
    N3712    N        0.58844    0.79935    0.10654    1.000
    Si3713   Si       0.63157    0.80573    0.11325    1.000
    N3714    N        0.60095    0.00731    0.01403    1.000
    Si3715   Si       0.62766    0.88502    0.09156    1.000
    N3716    N        0.58749    0.98215    0.11538    1.000
    Si3717   Si       0.62829    0.96230    0.10912    1.000
    N3718    N        0.59420    0.89869    0.06261    1.000
    Si3719   Si       0.62216    0.89466    0.02857    1.000
    N3720    N        0.61707    0.93322    0.00676    1.000
    Si3721   Si       0.62558    0.97439    0.99584    1.000
    N3722    N        0.63422    0.87058    0.18271    1.000
    N3723    N        0.59167    0.83321    0.22409    1.000
    N3724    N        0.62995    0.80515    0.15805    1.000
    Si3725   Si       0.61239    0.84360    0.15675    1.000
    Si3726   Si       0.61494    0.87050    0.22216    1.000
    Si3727   Si       0.60761    0.00082    0.16283    1.000
    N3728    N        0.59190    0.90596    0.22546    1.000
    N3729    N        0.59493    0.97505    0.24079    1.000
    Si3730   Si       0.60940    0.77835    0.32263    1.000
    N3731    N        0.61987    0.78988    0.27893    1.000
    N3732    N        0.59765    0.81458    0.34543    1.000
    Si3733   Si       0.60517    0.85207    0.32762    1.000
    Si3734   Si       0.58786    0.81442    0.26342    1.000
    N3735    N        0.58634    0.85198    0.28900    1.000
    N3736    N        0.58292    0.88914    0.33871    1.000
    N3737    N        0.59478    0.96185    0.34595    1.000
    N3738    N        0.61363    0.91903    0.28839    1.000
    Si3739   Si       0.58370    0.92463    0.36563    1.000
    Si3740   Si       0.58067    0.89411    0.29531    1.000
    Si3741   Si       0.61369    0.93601    0.24932    1.000
    Si3742   Si       0.58471    0.99652    0.37327    1.000
    Si3743   Si       0.63247    0.76005    0.43990    1.000
    N3744    N        0.62479    0.77465    0.48406    1.000
    N3745    N        0.60926    0.84654    0.40505    1.000
    N3746    N        0.59945    0.98858    0.41403    1.000
    Si3747   Si       0.60133    0.88421    0.42817    1.000
    N3748    N        0.60831    0.91813    0.40120    1.000
    Si3749   Si       0.63001    0.95489    0.41206    1.000
    N3750    N        0.61840    0.89169    0.46879    1.000
    N3751    N        0.62947    0.00502    0.48580    1.000
    N3752    N        0.60475    0.83822    0.58235    1.000
    N3753    N        0.61610    0.77453    0.55267    1.000
    Si3754   Si       0.62201    0.86351    0.55118    1.000
    Si3755   Si       0.58522    0.80147    0.56555    1.000
    N3756    N        0.59069    0.88354    0.53121    1.000
    Si3757   Si       0.62324    0.98269    0.52081    1.000
    N3758    N        0.59698    0.94669    0.58103    1.000
    N3759    N        0.62672    0.94116    0.51020    1.000
    Si3760   Si       0.63790    0.93738    0.56840    1.000
    Si3761   Si       0.59569    0.91308    0.50010    1.000
    N3762    N        0.58002    0.98852    0.53156    1.000
    N3763    N        0.58490    0.77370    0.67250    1.000
    Si3764   Si       0.59632    0.77836    0.63025    1.000
    Si3765   Si       0.61394    0.87609    0.73165    1.000
    Si3766   Si       0.61212    0.87903    0.66197    1.000
    Si3767   Si       0.63060    0.77253    0.67957    1.000
    N3768    N        0.63245    0.79887    0.64247    1.000
    N3769    N        0.63723    0.86765    0.69763    1.000
    Si3770   Si       0.60732    0.94749    0.62657    1.000
    N3771    N        0.62256    0.96198    0.72759    1.000
    N3772    N        0.60608    0.98903    0.64033    1.000
    N3773    N        0.60317    0.92104    0.66189    1.000
    Si3774   Si       0.59445    0.93907    0.70160    1.000
    N3775    N        0.58004    0.90116    0.72009    1.000
    N3776    N        0.60908    0.84071    0.75969    1.000
    N3777    N        0.62605    0.81685    0.82984    1.000
    N3778    N        0.60732    0.76942    0.76122    1.000
    N3779    N        0.60755    0.87405    0.81939    1.000
    Si3780   Si       0.58418    0.80528    0.76065    1.000
    Si3781   Si       0.63231    0.84610    0.79632    1.000
    Si3782   Si       0.58410    0.82912    0.83443    1.000
    Si3783   Si       0.61951    0.89017    0.85792    1.000
    Si3784   Si       0.61110    0.97822    0.80596    1.000
    N3785    N        0.61680    0.99005    0.84621    1.000
    Si3786   Si       0.59235    0.90194    0.78898    1.000
    N3787    N        0.58932    0.93973    0.80742    1.000
    N3788    N        0.62941    0.90547    0.76369    1.000
    N3789    N        0.59263    0.92322    0.87283    1.000
    Si3790   Si       0.58421    0.00411    0.87093    1.000
    Si3791   Si       0.57769    0.77382    0.96494    1.000
    N3792    N        0.61038    0.86057    0.88763    1.000
    Si3793   Si       0.60197    0.81850    0.90675    1.000
    Si3794   Si       0.58835    0.84305    0.98526    1.000
    N3795    N        0.60446    0.79930    0.98737    1.000
    N3796    N        0.58511    0.84134    0.94200    1.000
    Si3797   Si       0.58493    0.87899    0.91992    1.000
    N3798    N        0.58053    0.77254    0.92244    1.000
    N3799    N        0.62589    0.86465    0.99555    1.000
    N3800    N        0.63069    0.99015    0.95589    1.000
    Si3801   Si       0.61249    0.94532    0.90513    1.000
    Si3802   Si       0.58773    0.99538    0.94919    1.000
    N3803    N        0.59001    0.98138    0.90835    1.000
    N3804    N        0.60367    0.91562    0.93643    1.000
    Si3805   Si       0.58854    0.92577    0.97469    1.000
    Si3806   Si       0.67949    0.07293    0.03072    1.000
    N3807    N        0.66065    0.03440    0.04277    1.000
    N3808    N        0.64861    0.10183    0.02908    1.000
    N3809    N        0.66565    0.11529    0.09371    1.000
    Si3810   Si       0.65659    0.24343    0.02138    1.000
    N3811    N        0.67544    0.19376    0.11547    1.000
    N3812    N        0.69065    0.22295    0.03970    1.000
    Si3813   Si       0.67971    0.22415    0.08353    1.000
    Si3814   Si       0.65489    0.05354    0.19215    1.000
    N3815    N        0.67584    0.07014    0.22655    1.000
    N3816    N        0.67776    0.04956    0.15699    1.000
    Si3817   Si       0.64727    0.10394    0.22253    1.000
    N3818    N        0.67456    0.21699    0.19959    1.000
    N3819    N        0.66982    0.14121    0.22027    1.000
    Si3820   Si       0.65339    0.17764    0.20414    1.000
    Si3821   Si       0.66412    0.25704    0.20834    1.000
    N3822    N        0.63854    0.25476    0.24259    1.000
    Si3823   Si       0.67503    0.10249    0.31187    1.000
    N3824    N        0.64119    0.07318    0.30991    1.000
    Si3825   Si       0.63914    0.03859    0.33794    1.000
    Si3826   Si       0.68293    0.00929    0.29080    1.000
    N3827    N        0.67112    0.04466    0.36865    1.000
    N3828    N        0.70008    0.10973    0.27779    1.000
    N3829    N        0.65534    0.01033    0.25606    1.000
    N3830    N        0.65465    0.14353    0.31482    1.000
    Si3831   Si       0.66673    0.18574    0.30612    1.000
    N3832    N        0.69027    0.03956    0.47504    1.000
    Si3833   Si       0.67676    0.08646    0.37996    1.000
    N3834    N        0.63959    0.10870    0.37622    1.000
    Si3835   Si       0.66670    0.06305    0.44475    1.000
    N3836    N        0.65292    0.02318    0.42899    1.000
    N3837    N        0.69214    0.08598    0.41964    1.000
    Si3838   Si       0.67510    0.00993    0.39405    1.000
    Si3839   Si       0.66449    0.25247    0.49192    1.000
    Si3840   Si       0.64506    0.18866    0.46717    1.000
    N3841    N        0.64886    0.17525    0.37871    1.000
    N3842    N        0.68036    0.17723    0.44491    1.000
    Si3843   Si       0.68505    0.18543    0.40110    1.000
    N3844    N        0.67902    0.07394    0.54874    1.000
    Si3845   Si       0.68544    0.11702    0.56043    1.000
    N3846    N        0.67185    0.12097    0.59980    1.000
    Si3847   Si       0.66120    0.01745    0.57117    1.000
    N3848    N        0.66316    0.02655    0.61243    1.000
    Si3849   Si       0.63590    0.07814    0.54373    1.000
    N3850    N        0.65875    0.14023    0.53318    1.000
    Si3851   Si       0.66839    0.18150    0.52971    1.000
    N3852    N        0.67467    0.19463    0.57242    1.000
    N3853    N        0.64862    0.21247    0.50261    1.000
    Si3854   Si       0.63507    0.19571    0.58647    1.000
    N3855    N        0.67501    0.11574    0.66879    1.000
    N3856    N        0.68125    0.07242    0.71901    1.000
    Si3857   Si       0.64296    0.07234    0.73913    1.000
    Si3858   Si       0.64289    0.01606    0.64801    1.000
    N3859    N        0.67926    0.01189    0.74514    1.000
    Si3860   Si       0.65975    0.24703    0.63172    1.000
    N3861    N        0.65848    0.22376    0.66748    1.000
    N3862    N        0.64402    0.22275    0.73727    1.000
    Si3863   Si       0.68582    0.17966    0.74668    1.000
    N3864    N        0.65396    0.03129    0.81335    1.000
    N3865    N        0.66101    0.08656    0.85246    1.000
    N3866    N        0.65662    0.08750    0.77792    1.000
    Si3867   Si       0.66891    0.12801    0.85010    1.000
    Si3868   Si       0.64192    0.07266    0.81540    1.000
    Si3869   Si       0.69250    0.11277    0.77926    1.000
    N3870    N        0.68415    0.14274    0.81162    1.000
    N3871    N        0.64479    0.16297    0.75421    1.000
    Si3872   Si       0.65776    0.07092    0.89337    1.000
    N3873    N        0.65446    0.11876    0.96318    1.000
    N3874    N        0.65387    0.02598    0.88900    1.000
    N3875    N        0.68958    0.07276    0.92064    1.000
    Si3876   Si       0.69112    0.09495    0.95849    1.000
    Si3877   Si       0.66913    0.23652    0.93766    1.000
    N3878    N        0.67296    0.25124    0.98084    1.000
    N3879    N        0.69612    0.14016    0.87869    1.000
    N3880    N        0.66484    0.19781    0.91142    1.000
    Si3881   Si       0.66271    0.31979    0.03493    1.000
    Si3882   Si       0.68342    0.29628    0.10438    1.000
    N3883    N        0.68223    0.32605    0.07408    1.000
    N3884    N        0.64699    0.36064    0.03751    1.000
    N3885    N        0.64499    0.28150    0.04098    1.000
    Si3886   Si       0.68635    0.37082    0.06462    1.000
    N3887    N        0.64198    0.28308    0.10952    1.000
    N3888    N        0.69712    0.31570    0.01074    1.000
    N3889    N        0.68509    0.41286    0.03803    1.000
    N3890    N        0.67771    0.39385    0.10140    1.000
    Si3891   Si       0.65574    0.47401    0.05503    1.000
    N3892    N        0.65327    0.45884    0.09461    1.000
    Si3893   Si       0.64826    0.39871    0.01600    1.000
    Si3894   Si       0.64217    0.41564    0.10401    1.000
    Si3895   Si       0.66050    0.32162    0.16911    1.000
    N3896    N        0.67329    0.34638    0.20327    1.000
    N3897    N        0.64657    0.28104    0.17970    1.000
    Si3898   Si       0.64305    0.35617    0.23397    1.000
    N3899    N        0.69329    0.31381    0.14195    1.000
    N3900    N        0.66194    0.50747    0.15038    1.000
    Si3901   Si       0.67971    0.47830    0.12284    1.000
    N3902    N        0.68544    0.48712    0.22127    1.000
    N3903    N        0.68117    0.41861    0.21212    1.000
    Si3904   Si       0.64539    0.47660    0.23208    1.000
    N3905    N        0.69792    0.44796    0.15029    1.000
    Si3906   Si       0.67946    0.31229    0.32130    1.000
    N3907    N        0.67764    0.29215    0.28445    1.000
    N3908    N        0.67608    0.27697    0.34721    1.000
    N3909    N        0.64338    0.33926    0.31767    1.000
    Si3910   Si       0.64992    0.37946    0.30607    1.000
    N3911    N        0.65880    0.38099    0.26427    1.000
    N3912    N        0.68164    0.40148    0.32711    1.000
    N3913    N        0.68281    0.46797    0.34048    1.000
    Si3914   Si       0.67265    0.43006    0.35815    1.000
    Si3915   Si       0.67276    0.41960    0.25566    1.000
    Si3916   Si       0.66190    0.50395    0.35207    1.000
    N3917    N        0.63703    0.44581    0.26137    1.000
    N3918    N        0.64347    0.36258    0.40401    1.000
    N3919    N        0.65929    0.28224    0.41818    1.000
    Si3920   Si       0.66283    0.33200    0.42768    1.000
    N3921    N        0.67908    0.34135    0.46802    1.000
    Si3922   Si       0.64561    0.27420    0.37670    1.000
    N3923    N        0.65668    0.42719    0.44197    1.000
    Si3924   Si       0.69148    0.48176    0.48151    1.000
    N3925    N        0.65277    0.49745    0.39397    1.000
    N3926    N        0.66036    0.50585    0.46954    1.000
    Si3927   Si       0.69893    0.42489    0.43439    1.000
    Si3928   Si       0.66678    0.31254    0.59960    1.000
    N3929    N        0.67949    0.35295    0.61125    1.000
    N3930    N        0.67274    0.27932    0.52266    1.000
    Si3931   Si       0.66024    0.35497    0.50410    1.000
    N3932    N        0.68770    0.34807    0.53877    1.000
    N3933    N        0.63697    0.30479    0.56888    1.000
    Si3934   Si       0.66016    0.42444    0.60983    1.000
    Si3935   Si       0.65656    0.42591    0.54031    1.000
    N3936    N        0.67888    0.40960    0.57504    1.000
    N3937    N        0.68414    0.45279    0.51994    1.000
    N3938    N        0.66812    0.46794    0.61179    1.000
    N3939    N        0.64987    0.39791    0.50660    1.000
    Si3940   Si       0.64365    0.50089    0.59201    1.000
    Si3941   Si       0.66444    0.36667    0.71891    1.000
    N3942    N        0.65939    0.34979    0.67819    1.000
    N3943    N        0.66276    0.29191    0.63715    1.000
    Si3944   Si       0.64525    0.31084    0.67253    1.000
    Si3945   Si       0.68760    0.36811    0.65029    1.000
    N3946    N        0.64659    0.28678    0.70848    1.000
    Si3947   Si       0.64329    0.26475    0.74621    1.000
    Si3948   Si       0.66308    0.43385    0.68089    1.000
    N3949    N        0.67627    0.47611    0.68261    1.000
    N3950    N        0.67821    0.41025    0.64686    1.000
    N3951    N        0.67721    0.40895    0.71284    1.000
    Si3952   Si       0.67689    0.49956    0.64527    1.000
    Si3953   Si       0.68512    0.28603    0.80731    1.000
    N3954    N        0.65575    0.26856    0.83382    1.000
    N3955    N        0.68130    0.26895    0.76684    1.000
    N3956    N        0.68857    0.32814    0.80456    1.000
    N3957    N        0.68514    0.38911    0.84302    1.000
    Si3958   Si       0.68462    0.42979    0.75284    1.000
    N3959    N        0.67388    0.39048    0.77378    1.000
    Si3960   Si       0.66237    0.41359    0.81132    1.000
    Si3961   Si       0.65089    0.47876    0.85467    1.000
    N3962    N        0.67996    0.44868    0.79254    1.000
    Si3963   Si       0.64709    0.47691    0.77745    1.000
    N3964    N        0.64117    0.43675    0.84823    1.000
    Si3965   Si       0.67532    0.27906    0.87323    1.000
    N3966    N        0.67740    0.32217    0.87070    1.000
    N3967    N        0.65581    0.27054    0.91123    1.000
    Si3968   Si       0.64901    0.33823    0.89894    1.000
    N3969    N        0.67602    0.35402    0.93015    1.000
    N3970    N        0.65444    0.47843    0.96673    1.000
    Si3971   Si       0.65756    0.40568    0.87407    1.000
    Si3972   Si       0.64778    0.38701    0.93919    1.000
    Si3973   Si       0.68960    0.48284    0.99296    1.000
    N3974    N        0.66680    0.40282    0.97620    1.000
    N3975    N        0.64193    0.48481    0.89717    1.000
    Si3976   Si       0.66562    0.46324    0.92780    1.000
    N3977    N        0.65936    0.42196    0.91460    1.000
    N3978    N        0.66999    0.57955    0.01428    1.000
    N3979    N        0.65233    0.57970    0.08394    1.000
    Si3980   Si       0.64852    0.55992    0.04696    1.000
    Si3981   Si       0.67437    0.59921    0.11550    1.000
    N3982    N        0.64420    0.51657    0.04776    1.000
    Si3983   Si       0.65514    0.61704    0.99939    1.000
    N3984    N        0.64143    0.63719    0.03825    1.000
    N3985    N        0.65954    0.63811    0.10535    1.000
    Si3986   Si       0.67718    0.67571    0.08858    1.000
    Si3987   Si       0.65530    0.74187    0.06358    1.000
    N3988    N        0.65723    0.69830    0.05911    1.000
    N3989    N        0.63479    0.75609    0.02690    1.000
    N3990    N        0.68220    0.55464    0.21256    1.000
    N3991    N        0.67103    0.58378    0.15532    1.000
    Si3992   Si       0.68312    0.54251    0.16898    1.000
    Si3993   Si       0.66816    0.59573    0.19939    1.000
    N3994    N        0.68312    0.69593    0.19156    1.000
    Si3995   Si       0.65278    0.73956    0.13567    1.000
    Si3996   Si       0.64394    0.71063    0.19933    1.000
    N3997    N        0.67723    0.70696    0.12074    1.000
    N3998    N        0.64725    0.73647    0.23557    1.000
    N3999    N        0.67052    0.59368    0.32600    1.000
    N4000    N        0.68475    0.53308    0.27891    1.000
    N4001    N        0.68137    0.61461    0.26793    1.000
    Si4002   Si       0.64616    0.60387    0.28996    1.000
    Si4003   Si       0.64660    0.60369    0.36187    1.000
    Si4004   Si       0.64176    0.53059    0.28417    1.000
    N4005    N        0.63287    0.51423    0.32293    1.000
    Si4006   Si       0.68820    0.66190    0.36308    1.000
    Si4007   Si       0.66051    0.71876    0.32606    1.000
    N4008    N        0.65187    0.68642    0.35672    1.000
    Si4009   Si       0.65215    0.69793    0.25823    1.000
    N4010    N        0.64250    0.75506    0.34172    1.000
    N4011    N        0.69148    0.68136    0.25800    1.000
    N4012    N        0.67952    0.59456    0.45496    1.000
    Si4013   Si       0.66258    0.52140    0.42871    1.000
    Si4014   Si       0.68929    0.62555    0.42618    1.000
    N4015    N        0.67289    0.62700    0.38575    1.000
    Si4016   Si       0.66249    0.60274    0.49533    1.000
    N4017    N        0.66177    0.72720    0.44202    1.000
    N4018    N        0.68927    0.66647    0.44245    1.000
    Si4019   Si       0.65335    0.68804    0.45613    1.000
    Si4020   Si       0.66140    0.55822    0.55121    1.000
    Si4021   Si       0.66430    0.60563    0.60168    1.000
    N4022    N        0.65648    0.56296    0.51059    1.000
    N4023    N        0.67320    0.51864    0.56613    1.000
    N4024    N        0.68982    0.58666    0.56992    1.000
    N4025    N        0.68631    0.63277    0.51105    1.000
    N4026    N        0.64029    0.63768    0.58316    1.000
    Si4027   Si       0.68817    0.67552    0.51897    1.000
    Si4028   Si       0.66493    0.67231    0.58715    1.000
    N4029    N        0.66634    0.75156    0.59622    1.000
    N4030    N        0.65440    0.68984    0.50060    1.000
    N4031    N        0.69465    0.63957    0.61224    1.000
    Si4032   Si       0.65749    0.60340    0.74261    1.000
    N4033    N        0.66287    0.54206    0.68687    1.000
    N4034    N        0.66005    0.58781    0.64342    1.000
    N4035    N        0.68734    0.60554    0.70936    1.000
    Si4036   Si       0.68702    0.57782    0.67700    1.000
    Si4037   Si       0.67683    0.50888    0.71413    1.000
    Si4038   Si       0.63474    0.55493    0.65497    1.000
    N4039    N        0.63870    0.51875    0.63135    1.000
    Si4040   Si       0.64655    0.70377    0.69763    1.000
    Si4041   Si       0.69469    0.67116    0.64580    1.000
    N4042    N        0.64924    0.73602    0.66691    1.000
    N4043    N        0.63957    0.64220    0.74181    1.000
    N4044    N        0.67819    0.67422    0.68773    1.000
    N4045    N        0.65776    0.68911    0.62709    1.000
    Si4046   Si       0.68069    0.73224    0.63503    1.000
    N4047    N        0.65402    0.71184    0.73928    1.000
    N4048    N        0.68093    0.60365    0.77916    1.000
    N4049    N        0.64301    0.61933    0.84366    1.000
    N4050    N        0.65736    0.51105    0.75119    1.000
    Si4051   Si       0.67185    0.63093    0.81253    1.000
    N4052    N        0.68981    0.71092    0.83753    1.000
    N4053    N        0.66116    0.66929    0.79484    1.000
    Si4054   Si       0.64951    0.70113    0.82318    1.000
    Si4055   Si       0.64656    0.75157    0.75952    1.000
    Si4056   Si       0.66818    0.67226    0.75287    1.000
    N4057    N        0.64959    0.60080    0.90847    1.000
    Si4058   Si       0.68648    0.57924    0.91037    1.000
    N4059    N        0.68989    0.53652    0.90728    1.000
    Si4060   Si       0.64103    0.63703    0.88425    1.000
    N4061    N        0.70064    0.57978    0.95013    1.000
    N4062    N        0.67305    0.66364    0.89759    1.000
    N4063    N        0.68924    0.63912    0.98432    1.000
    N4064    N        0.64810    0.69262    0.98931    1.000
    Si4065   Si       0.65003    0.70300    0.89332    1.000
    N4066    N        0.67145    0.73995    0.89607    1.000
    Si4067   Si       0.69065    0.68383    0.98005    1.000
    N4068    N        0.67464    0.81290    0.10081    1.000
    N4069    N        0.65286    0.87760    0.05575    1.000
    N4070    N        0.69743    0.88094    0.00622    1.000
    Si4071   Si       0.64642    0.78452    0.99397    1.000
    N4072    N        0.67758    0.81385    0.99451    1.000
    N4073    N        0.66765    0.97749    0.00942    1.000
    Si4074   Si       0.67773    0.99384    0.05041    1.000
    Si4075   Si       0.68743    0.91426    0.10893    1.000
    N4076    N        0.64501    0.92275    0.10561    1.000
    N4077    N        0.64092    0.98258    0.07124    1.000
    Si4078   Si       0.66516    0.79714    0.18254    1.000
    N4079    N        0.66184    0.80752    0.22422    1.000
    Si4080   Si       0.67956    0.87396    0.17969    1.000
    Si4081   Si       0.67655    0.84187    0.24095    1.000
    N4082    N        0.68909    0.83082    0.16837    1.000
    N4083    N        0.68106    0.76258    0.16044    1.000
    Si4084   Si       0.69472    0.84021    0.12522    1.000
    N4085    N        0.68737    0.88147    0.13682    1.000
    Si4086   Si       0.67802    0.95726    0.16633    1.000
    N4087    N        0.69024    0.98585    0.19627    1.000
    Si4088   Si       0.67946    0.97929    0.23904    1.000
    N4089    N        0.65625    0.94300    0.24150    1.000
    N4090    N        0.68108    0.91930    0.18870    1.000
    N4091    N        0.64191    0.97474    0.15058    1.000
    Si4092   Si       0.68139    0.90752    0.23572    1.000
    Si4093   Si       0.67611    0.84670    0.34693    1.000
    N4094    N        0.64575    0.86416    0.32192    1.000
    Si4095   Si       0.65482    0.77482    0.25430    1.000
    N4096    N        0.68376    0.80436    0.34137    1.000
    N4097    N        0.69542    0.77047    0.27358    1.000
    N4098    N        0.64780    0.87710    0.25012    1.000
    Si4099   Si       0.66886    0.77659    0.37077    1.000
    N4100    N        0.66425    0.92918    0.32931    1.000
    N4101    N        0.65051    0.00039    0.32056    1.000
    Si4102   Si       0.65199    0.89897    0.29555    1.000
    Si4103   Si       0.63940    0.96405    0.33846    1.000
    N4104    N        0.64678    0.78698    0.40804    1.000
    N4105    N        0.67520    0.85075    0.38945    1.000
    Si4106   Si       0.64745    0.82892    0.41474    1.000
    N4107    N        0.65861    0.83658    0.45529    1.000
    Si4108   Si       0.64987    0.86334    0.48703    1.000
    Si4109   Si       0.66038    0.93154    0.48077    1.000
    N4110    N        0.65630    0.95796    0.44685    1.000
    N4111    N        0.65260    0.97462    0.37997    1.000
    Si4112   Si       0.66958    0.00077    0.46841    1.000
    N4113    N        0.68162    0.77914    0.53267    1.000
    N4114    N        0.68643    0.81937    0.59576    1.000
    Si4115   Si       0.69056    0.78167    0.57559    1.000
    Si4116   Si       0.64185    0.79446    0.52074    1.000
    N4117    N        0.64055    0.83773    0.52115    1.000
    Si4118   Si       0.68783    0.89303    0.53992    1.000
    N4119    N        0.65043    0.93699    0.61411    1.000
    N4120    N        0.65117    0.89210    0.56579    1.000
    Si4121   Si       0.66284    0.89602    0.60810    1.000
    N4122    N        0.65046    0.97796    0.55619    1.000
    Si4123   Si       0.69136    0.97278    0.54266    1.000
    N4124    N        0.67639    0.89549    0.49852    1.000
    N4125    N        0.68802    0.97176    0.49892    1.000
    N4126    N        0.68563    0.83596    0.73755    1.000
    N4127    N        0.68979    0.82712    0.66812    1.000
    Si4128   Si       0.68902    0.79380    0.73360    1.000
    Si4129   Si       0.67737    0.85456    0.69878    1.000
    N4130    N        0.65379    0.77864    0.71594    1.000
    Si4131   Si       0.66227    0.82761    0.63240    1.000
    N4132    N        0.64243    0.86614    0.63145    1.000
    Si4133   Si       0.64222    0.00203    0.72265    1.000
    N4134    N        0.66172    0.99575    0.68407    1.000
    N4135    N        0.68747    0.94262    0.72742    1.000
    Si4136   Si       0.69510    0.96640    0.69143    1.000
    N4137    N        0.67321    0.85765    0.80305    1.000
    Si4138   Si       0.65630    0.80826    0.85785    1.000
    Si4139   Si       0.68554    0.87419    0.83854    1.000
    N4140    N        0.68624    0.77127    0.77084    1.000
    N4141    N        0.68553    0.77932    0.83944    1.000
    N4142    N        0.67858    0.84329    0.86938    1.000
    N4143    N        0.66085    0.90680    0.85447    1.000
    N4144    N        0.65140    0.97185    0.78756    1.000
    N4145    N        0.69077    0.97771    0.85069    1.000
    Si4146   Si       0.65227    0.94168    0.75348    1.000
    Si4147   Si       0.65656    0.00572    0.84979    1.000
    Si4148   Si       0.68082    0.00667    0.78751    1.000
    N4149    N        0.64042    0.79977    0.89923    1.000
    Si4150   Si       0.66912    0.85682    0.98517    1.000
    Si4151   Si       0.66577    0.77282    0.92141    1.000
    N4152    N        0.67597    0.85916    0.94211    1.000
    N4153    N        0.65110    0.75920    0.95911    1.000
    Si4154   Si       0.69663    0.98188    0.97626    1.000
    N4155    N        0.65342    0.95516    0.90132    1.000
    Si4156   Si       0.68282    0.94079    0.87235    1.000
    N4157    N        0.69221    0.00751    0.94132    1.000
    Si4158   Si       0.65628    0.99492    0.91944    1.000
    N4159    N        0.71341    0.08452    0.05513    1.000
    Si4160   Si       0.70776    0.10372    0.09518    1.000
    N4161    N        0.72503    0.01427    0.11579    1.000
    Si4162   Si       0.75428    0.09071    0.04347    1.000
    N4163    N        0.75796    0.13164    0.03089    1.000
    Si4164   Si       0.75429    0.16346    0.00013    1.000
    N4165    N        0.73729    0.20287    0.10097    1.000
    N4166    N        0.73148    0.14337    0.09503    1.000
    Si4167   Si       0.72810    0.22060    0.01729    1.000
    Si4168   Si       0.74091    0.24412    0.11696    1.000
    Si4169   Si       0.71222    0.17357    0.12170    1.000
    N4170    N        0.73867    0.25979    0.00379    1.000
    N4171    N        0.73269    0.08270    0.12494    1.000
    N4172    N        0.74323    0.03923    0.17923    1.000
    Si4173   Si       0.72012    0.04728    0.14344    1.000
    N4174    N        0.72052    0.02336    0.24298    1.000
    Si4175   Si       0.72720    0.00823    0.20297    1.000
    Si4176   Si       0.70045    0.14292    0.24920    1.000
    N4177    N        0.74429    0.20570    0.21363    1.000
    N4178    N        0.72357    0.17381    0.16288    1.000
    Si4179   Si       0.71359    0.21328    0.18356    1.000
    N4180    N        0.73765    0.13879    0.22489    1.000
    N4181    N        0.72751    0.24763    0.15931    1.000
    Si4182   Si       0.75056    0.16686    0.19514    1.000
    Si4183   Si       0.72608    0.05906    0.33698    1.000
    N4184    N        0.70360    0.09847    0.34647    1.000
    N4185    N        0.70314    0.04791    0.29973    1.000
    Si4186   Si       0.73384    0.12763    0.36454    1.000
    Si4187   Si       0.70823    0.06656    0.25870    1.000
    N4188    N        0.75105    0.07719    0.25148    1.000
    Si4189   Si       0.72230    0.20875    0.28923    1.000
    N4190    N        0.73084    0.24878    0.27230    1.000
    Si4191   Si       0.70510    0.24372    0.35226    1.000
    N4192    N        0.69991    0.20971    0.32530    1.000
    N4193    N        0.69379    0.18056    0.27119    1.000
    N4194    N        0.74485    0.25936    0.35422    1.000
    N4195    N        0.73982    0.04183    0.37387    1.000
    Si4196   Si       0.73420    0.03974    0.47410    1.000
    Si4197   Si       0.73040    0.10283    0.43183    1.000
    N4198    N        0.75031    0.06440    0.44235    1.000
    N4199    N        0.73380    0.13074    0.46471    1.000
    N4200    N        0.69329    0.22765    0.39414    1.000
    Si4201   Si       0.73948    0.24230    0.46793    1.000
    Si4202   Si       0.71822    0.17298    0.46779    1.000
    N4203    N        0.74779    0.20243    0.45486    1.000
    N4204    N        0.71401    0.15502    0.39198    1.000
    N4205    N        0.69530    0.24292    0.46420    1.000
    Si4206   Si       0.69454    0.25784    0.42373    1.000
    N4207    N        0.73912    0.06214    0.58472    1.000
    Si4208   Si       0.71809    0.05424    0.54583    1.000
    N4209    N        0.72744    0.12508    0.55391    1.000
    N4210    N        0.74456    0.05712    0.51179    1.000
    N4211    N        0.70553    0.01054    0.55782    1.000
    Si4212   Si       0.70780    0.19787    0.59954    1.000
    N4213    N        0.74236    0.18571    0.57461    1.000
    N4214    N        0.70683    0.18088    0.50921    1.000
    Si4215   Si       0.73835    0.16281    0.53694    1.000
    N4216    N        0.70093    0.23803    0.61746    1.000
    Si4217   Si       0.69542    0.13329    0.63540    1.000
    N4218    N        0.74790    0.01504    0.62793    1.000
    Si4219   Si       0.70355    0.03509    0.71114    1.000
    N4220    N        0.73041    0.10919    0.62637    1.000
    Si4221   Si       0.70574    0.09293    0.69011    1.000
    Si4222   Si       0.73648    0.06066    0.63071    1.000
    N4223    N        0.74207    0.11691    0.69275    1.000
    N4224    N        0.71469    0.05440    0.66867    1.000
    N4225    N        0.74275    0.04388    0.73853    1.000
    Si4226   Si       0.74721    0.14333    0.72923    1.000
    N4227    N        0.70438    0.19275    0.70889    1.000
    Si4228   Si       0.70159    0.20815    0.66739    1.000
    Si4229   Si       0.74437    0.21349    0.71528    1.000
    N4230    N        0.70228    0.17643    0.63714    1.000
    N4231    N        0.73801    0.23422    0.67617    1.000
    N4232    N        0.72726    0.08962    0.79393    1.000
    Si4233   Si       0.74303    0.04982    0.78244    1.000
    N4234    N        0.72048    0.01628    0.80291    1.000
    N4235    N        0.70859    0.20288    0.84948    1.000
    Si4236   Si       0.71469    0.24352    0.77230    1.000
    Si4237   Si       0.73396    0.23735    0.84594    1.000
    Si4238   Si       0.71326    0.17787    0.81247    1.000
    N4239    N        0.70542    0.20213    0.77637    1.000
    N4240    N        0.75099    0.15967    0.81432    1.000
    N4241    N        0.74894    0.24515    0.74589    1.000
    N4242    N        0.70869    0.14132    0.74957    1.000
    Si4243   Si       0.71411    0.03724    0.92089    1.000
    N4244    N        0.72733    0.12041    0.94859    1.000
    Si4245   Si       0.73236    0.04141    0.98781    1.000
    N4246    N        0.74833    0.04570    0.94871    1.000
    N4247    N        0.73350    0.02295    0.88425    1.000
    N4248    N        0.69764    0.06808    0.99075    1.000
    N4249    N        0.72489    0.19124    0.98329    1.000
    Si4250   Si       0.69684    0.18324    0.88760    1.000
    Si4251   Si       0.74044    0.20433    0.94486    1.000
    Si4252   Si       0.72745    0.13579    0.90764    1.000
    N4253    N        0.73244    0.17840    0.91024    1.000
    N4254    N        0.71570    0.23665    0.93313    1.000
    Si4255   Si       0.73145    0.34201    0.01871    1.000
    N4256    N        0.72933    0.36836    0.05267    1.000
    N4257    N        0.70568    0.25888    0.09567    1.000
    Si4258   Si       0.71755    0.44000    0.02878    1.000
    N4259    N        0.71459    0.49920    0.10250    1.000
    N4260    N        0.74456    0.41575    0.10599    1.000
    Si4261   Si       0.72529    0.50559    0.06096    1.000
    N4262    N        0.69849    0.47823    0.03714    1.000
    N4263    N        0.73616    0.37627    0.22496    1.000
    Si4264   Si       0.73653    0.27640    0.19067    1.000
    N4265    N        0.74531    0.31764    0.18543    1.000
    Si4266   Si       0.72796    0.33981    0.15039    1.000
    N4267    N        0.71450    0.38018    0.15854    1.000
    Si4268   Si       0.70000    0.38036    0.20074    1.000
    N4269    N        0.70169    0.27708    0.21811    1.000
    Si4270   Si       0.74219    0.42079    0.23741    1.000
    Si4271   Si       0.69720    0.45388    0.19338    1.000
    Si4272   Si       0.70806    0.40941    0.12834    1.000
    N4273    N        0.74021    0.44765    0.20217    1.000
    N4274    N        0.73697    0.32105    0.26234    1.000
    Si4275   Si       0.74270    0.34081    0.30113    1.000
    N4276    N        0.71366    0.33438    0.33303    1.000
    Si4277   Si       0.71316    0.28491    0.25986    1.000
    N4278    N        0.75348    0.38241    0.29908    1.000
    N4279    N        0.74896    0.38040    0.37413    1.000
    Si4280   Si       0.72135    0.40871    0.31054    1.000
    N4281    N        0.71378    0.42775    0.27026    1.000
    Si4282   Si       0.72690    0.47941    0.34180    1.000
    N4283    N        0.73855    0.43755    0.33929    1.000
    N4284    N        0.73980    0.50898    0.31317    1.000
    Si4285   Si       0.72705    0.34271    0.37331    1.000
    N4286    N        0.73854    0.26946    0.43141    1.000
    Si4287   Si       0.71587    0.35489    0.44800    1.000
    N4288    N        0.70252    0.33901    0.40954    1.000
    N4289    N        0.75064    0.33218    0.45732    1.000
    Si4290   Si       0.74594    0.47632    0.42159    1.000
    N4291    N        0.73675    0.49331    0.38360    1.000
    N4292    N        0.71143    0.46480    0.44668    1.000
    Si4293   Si       0.73978    0.42101    0.37958    1.000
    N4294    N        0.69932    0.42451    0.39229    1.000
    N4295    N        0.72052    0.39538    0.45531    1.000
    N4296    N        0.74166    0.30166    0.52374    1.000
    Si4297   Si       0.72757    0.26994    0.60252    1.000
    N4298    N        0.74021    0.37081    0.58550    1.000
    N4299    N        0.70357    0.29735    0.58190    1.000
    Si4300   Si       0.70228    0.30614    0.53947    1.000
    Si4301   Si       0.69791    0.37172    0.57675    1.000
    N4302    N        0.75117    0.43839    0.50363    1.000
    N4303    N        0.72910    0.47068    0.56933    1.000
    Si4304   Si       0.72501    0.46222    0.52686    1.000
    N4305    N        0.72390    0.49920    0.50295    1.000
    Si4306   Si       0.71209    0.50806    0.58441    1.000
    N4307    N        0.70233    0.34613    0.73240    1.000
    N4308    N        0.72543    0.36000    0.66994    1.000
    Si4309   Si       0.73687    0.33961    0.70719    1.000
    N4310    N        0.74805    0.29819    0.70297    1.000
    Si4311   Si       0.74582    0.46928    0.71824    1.000
    N4312    N        0.71882    0.50329    0.72595    1.000
    N4313    N        0.74303    0.33295    0.83790    1.000
    N4314    N        0.73866    0.37643    0.78200    1.000
    N4315    N        0.72554    0.26587    0.81096    1.000
    Si4316   Si       0.70002    0.34689    0.84254    1.000
    Si4317   Si       0.69977    0.35725    0.77392    1.000
    Si4318   Si       0.71472    0.47011    0.81419    1.000
    N4319    N        0.74743    0.44091    0.81555    1.000
    Si4320   Si       0.74979    0.41867    0.77654    1.000
    N4321    N        0.72570    0.44278    0.74933    1.000
    N4322    N        0.69569    0.48026    0.85272    1.000
    Si4323   Si       0.70565    0.27987    0.98483    1.000
    N4324    N        0.71513    0.30040    0.94838    1.000
    N4325    N        0.72827    0.36662    0.98136    1.000
    Si4326   Si       0.71551    0.34283    0.94537    1.000
    Si4327   Si       0.73221    0.27280    0.91733    1.000
    N4328    N        0.74543    0.35238    0.91525    1.000
    N4329    N        0.71883    0.26458    0.87592    1.000
    Si4330   Si       0.73625    0.45606    0.94475    1.000
    Si4331   Si       0.70922    0.50447    0.88480    1.000
    Si4332   Si       0.70957    0.40466    0.97168    1.000
    N4333    N        0.73081    0.41465    0.93403    1.000
    N4334    N        0.70776    0.47829    0.92293    1.000
    N4335    N        0.71688    0.44775    0.98495    1.000
    N4336    N        0.72568    0.54829    0.04892    1.000
    N4337    N        0.71841    0.59229    0.10905    1.000
    Si4338   Si       0.74572    0.57082    0.07885    1.000
    Si4339   Si       0.71015    0.56063    0.00890    1.000
    Si4340   Si       0.73495    0.63459    0.10870    1.000
    Si4341   Si       0.73868    0.67796    0.04295    1.000
    Si4342   Si       0.72133    0.73678    0.03424    1.000
    N4343    N        0.71247    0.69917    0.01499    1.000
    N4344    N        0.71601    0.65864    0.07625    1.000
    N4345    N        0.75097    0.71588    0.06174    1.000
    N4346    N        0.69540    0.76059    0.06032    1.000
    N4347    N        0.72602    0.53652    0.16191    1.000
    N4348    N        0.74120    0.52234    0.24611    1.000
    Si4349   Si       0.69871    0.52521    0.23866    1.000
    Si4350   Si       0.74194    0.57383    0.14407    1.000
    Si4351   Si       0.74545    0.51102    0.13140    1.000
    N4352    N        0.69752    0.62457    0.20657    1.000
    N4353    N        0.73688    0.71956    0.14925    1.000
    Si4354   Si       0.73131    0.63698    0.18124    1.000
    N4355    N        0.71936    0.65394    0.14378    1.000
    N4356    N        0.72073    0.74613    0.21047    1.000
    Si4357   Si       0.70782    0.64246    0.24619    1.000
    Si4358   Si       0.72354    0.75621    0.16840    1.000
    Si4359   Si       0.70326    0.69254    0.15257    1.000
    N4360    N        0.74038    0.66942    0.21158    1.000
    Si4361   Si       0.71392    0.70349    0.22459    1.000
    N4362    N        0.73366    0.57899    0.31612    1.000
    Si4363   Si       0.70950    0.61315    0.30463    1.000
    Si4364   Si       0.71016    0.54190    0.31226    1.000
    N4365    N        0.74090    0.63278    0.27261    1.000
    N4366    N        0.69524    0.53113    0.35204    1.000
    N4367    N        0.70573    0.71684    0.32590    1.000
    Si4368   Si       0.72352    0.69077    0.29538    1.000
    Si4369   Si       0.72514    0.72374    0.36378    1.000
    N4370    N        0.70540    0.65201    0.32350    1.000
    N4371    N        0.74566    0.72071    0.26461    1.000
    N4372    N        0.70069    0.54078    0.42101    1.000
    Si4373   Si       0.72349    0.53319    0.38579    1.000
    Si4374   Si       0.71775    0.57296    0.44290    1.000
    N4375    N        0.72852    0.60896    0.42246    1.000
    N4376    N        0.74600    0.56038    0.47450    1.000
    Si4377   Si       0.75605    0.51956    0.48382    1.000
    Si4378   Si       0.74959    0.71692    0.48768    1.000
    N4379    N        0.69934    0.75062    0.38814    1.000
    Si4380   Si       0.72602    0.68295    0.42600    1.000
    N4381    N        0.73043    0.71988    0.44815    1.000
    N4382    N        0.71706    0.68556    0.38433    1.000
    Si4383   Si       0.69822    0.74752    0.43391    1.000
    Si4384   Si       0.73127    0.58059    0.57103    1.000
    N4385    N        0.74243    0.53602    0.57433    1.000
    N4386    N        0.74211    0.58951    0.61205    1.000
    Si4387   Si       0.74350    0.63287    0.62014    1.000
    Si4388   Si       0.74088    0.68124    0.55281    1.000
    N4389    N        0.73032    0.68320    0.50827    1.000
    N4390    N        0.74320    0.75315    0.51163    1.000
    Si4391   Si       0.73940    0.74390    0.61992    1.000
    N4392    N        0.75547    0.64930    0.57827    1.000
    N4393    N        0.69602    0.68643    0.56095    1.000
    Si4394   Si       0.74800    0.57539    0.71279    1.000
    N4395    N        0.71176    0.51969    0.62839    1.000
    N4396    N        0.72886    0.56680    0.67474    1.000
    Si4397   Si       0.74180    0.55263    0.63688    1.000
    N4398    N        0.75324    0.61958    0.71360    1.000
    Si4399   Si       0.71019    0.64324    0.70367    1.000
    N4400    N        0.70982    0.66169    0.74483    1.000
    N4401    N        0.71825    0.70713    0.63112    1.000
    N4402    N        0.72846    0.64444    0.66398    1.000
    Si4403   Si       0.73291    0.60614    0.85152    1.000
    Si4404   Si       0.72104    0.58925    0.78250    1.000
    N4405    N        0.72928    0.57292    0.82328    1.000
    Si4406   Si       0.74349    0.51789    0.75807    1.000
    N4407    N        0.74548    0.51842    0.86452    1.000
    N4408    N        0.73328    0.56109    0.75249    1.000
    Si4409   Si       0.75126    0.53654    0.82567    1.000
    N4410    N        0.73166    0.50827    0.79947    1.000
    N4411    N        0.70916    0.63795    0.83347    1.000
    Si4412   Si       0.72022    0.67929    0.83647    1.000
    N4413    N        0.74354    0.68461    0.80162    1.000
    Si4414   Si       0.74510    0.65721    0.76941    1.000
    Si4415   Si       0.69806    0.74515    0.86113    1.000
    N4416    N        0.74612    0.75585    0.81562    1.000
    N4417    N        0.74480    0.58849    0.99525    1.000
    Si4418   Si       0.71186    0.53676    0.94580    1.000
    N4419    N        0.71987    0.59338    0.89065    1.000
    Si4420   Si       0.72028    0.61384    0.97011    1.000
    N4421    N        0.70349    0.52336    0.98654    1.000
    N4422    N        0.75395    0.53721    0.94608    1.000
    Si4423   Si       0.71463    0.66851    0.91150    1.000
    N4424    N        0.73587    0.63558    0.93457    1.000
    N4425    N        0.73945    0.67982    0.87575    1.000
    N4426    N        0.71504    0.69780    0.94553    1.000
    N4427    N        0.73837    0.74764    0.87880    1.000
    Si4428   Si       0.75327    0.71725    0.95027    1.000
    N4429    N        0.71556    0.82947    0.04650    1.000
    Si4430   Si       0.71227    0.79709    0.07779    1.000
    Si4431   Si       0.71754    0.80992    0.00818    1.000
    N4432    N        0.73558    0.76799    0.00763    1.000
    N4433    N        0.73540    0.83679    0.11473    1.000
    Si4434   Si       0.74962    0.87927    0.10212    1.000
    N4435    N        0.75184    0.77796    0.09392    1.000
    Si4436   Si       0.69494    0.86995    0.04876    1.000
    N4437    N        0.71489    0.97551    0.06202    1.000
    N4438    N        0.71566    0.89438    0.07898    1.000
    Si4439   Si       0.73004    0.97291    0.10355    1.000
    Si4440   Si       0.74475    0.97274    0.03216    1.000
    N4441    N        0.74806    0.92967    0.02029    1.000
    N4442    N        0.72973    0.99940    0.99794    1.000
    N4443    N        0.70355    0.87085    0.21995    1.000
    Si4444   Si       0.74777    0.87151    0.22707    1.000
    N4445    N        0.70276    0.95190    0.12846    1.000
    Si4446   Si       0.71894    0.87080    0.29242    1.000
    N4447    N        0.70885    0.87197    0.33613    1.000
    Si4448   Si       0.70522    0.80298    0.30228    1.000
    N4449    N        0.74689    0.81270    0.30925    1.000
    Si4450   Si       0.73002    0.75988    0.24768    1.000
    N4451    N        0.69476    0.83716    0.27821    1.000
    N4452    N        0.73380    0.93210    0.33479    1.000
    Si4453   Si       0.72403    0.93838    0.29413    1.000
    N4454    N        0.70493    0.97561    0.27957    1.000
    Si4455   Si       0.74706    0.98840    0.26151    1.000
    Si4456   Si       0.69848    0.91167    0.34987    1.000
    N4457    N        0.69790    0.90584    0.27954    1.000
    Si4458   Si       0.69909    0.82616    0.46107    1.000
    N4459    N        0.74696    0.84827    0.38890    1.000
    N4460    N        0.71779    0.86365    0.44425    1.000
    Si4461   Si       0.71083    0.87022    0.40273    1.000
    N4462    N        0.70243    0.78130    0.45845    1.000
    Si4463   Si       0.74091    0.89540    0.46382    1.000
    N4464    N        0.71278    0.98988    0.40323    1.000
    N4465    N        0.72388    0.93477    0.45543    1.000
    Si4466   Si       0.71980    0.94802    0.41472    1.000
    Si4467   Si       0.75253    0.99904    0.38768    1.000
    N4468    N        0.74515    0.99761    0.46804    1.000
    Si4469   Si       0.72868    0.96358    0.48677    1.000
    N4470    N        0.70342    0.91244    0.39355    1.000
    N4471    N        0.71768    0.86732    0.55493    1.000
    Si4472   Si       0.71498    0.85260    0.59729    1.000
    Si4473   Si       0.71299    0.78162    0.50244    1.000
    N4474    N        0.73024    0.76032    0.57892    1.000
    N4475    N        0.72225    0.82376    0.49885    1.000
    N4476    N        0.70258    0.88677    0.61974    1.000
    N4477    N        0.74421    0.96366    0.59259    1.000
    Si4478   Si       0.74402    0.93770    0.55873    1.000
    N4479    N        0.70211    0.93254    0.55171    1.000
    Si4480   Si       0.74166    0.00764    0.58330    1.000
    Si4481   Si       0.72137    0.79933    0.67277    1.000
    N4482    N        0.72493    0.78419    0.71332    1.000
    N4483    N        0.71087    0.76751    0.64572    1.000
    N4484    N        0.70436    0.88874    0.69217    1.000
    N4485    N        0.72586    0.99538    0.70435    1.000
    Si4486   Si       0.74389    0.97043    0.63589    1.000
    Si4487   Si       0.72042    0.90446    0.65426    1.000
    Si4488   Si       0.71929    0.91116    0.72956    1.000
    N4489    N        0.71427    0.94765    0.65724    1.000
    N4490    N        0.73124    0.81778    0.79238    1.000
    Si4491   Si       0.71139    0.77992    0.80473    1.000
    Si4492   Si       0.70504    0.84770    0.77439    1.000
    N4493    N        0.72782    0.88685    0.83434    1.000
    N4494    N        0.72552    0.88600    0.76481    1.000
    Si4495   Si       0.72733    0.00175    0.84427    1.000
    Si4496   Si       0.75158    0.89117    0.79984    1.000
    N4497    N        0.73603    0.85793    0.90305    1.000
    Si4498   Si       0.74092    0.77985    0.90792    1.000
    N4499    N        0.70351    0.79551    0.91668    1.000
    N4500    N        0.75068    0.82577    0.98273    1.000
    N4501    N        0.75743    0.76048    0.94352    1.000
    Si4502   Si       0.69516    0.83869    0.91063    1.000
    N4503    N        0.75163    0.90066    0.95990    1.000
    N4504    N        0.70635    0.94240    0.96166    1.000
    Si4505   Si       0.72261    0.91250    0.98997    1.000
    Si4506   Si       0.73560    0.93327    0.93094    1.000
    N4507    N        0.71718    0.92084    0.89294    1.000
    Si4508   Si       0.74333    0.89078    0.87518    1.000
    Si4509   Si       0.79175    0.03156    0.01821    1.000
    N4510    N        0.78412    0.08425    0.07490    1.000
    Si4511   Si       0.77563    0.09053    0.11708    1.000
    N4512    N        0.76279    0.06284    0.01067    1.000
    N4513    N        0.79873    0.17221    0.07744    1.000
    N4514    N        0.80122    0.24937    0.04891    1.000
    N4515    N        0.75993    0.19473    0.03426    1.000
    Si4516   Si       0.80755    0.20407    0.04309    1.000
    Si4517   Si       0.75568    0.17196    0.07332    1.000
    N4518    N        0.78227    0.25765    0.11611    1.000
    N4519    N        0.81090    0.02823    0.20297    1.000
    N4520    N        0.79653    0.05986    0.14125    1.000
    N4521    N        0.79930    0.12467    0.12504    1.000
    N4522    N        0.78964    0.09591    0.19583    1.000
    Si4523   Si       0.76993    0.10976    0.23127    1.000
    Si4524   Si       0.78354    0.05433    0.18314    1.000
    Si4525   Si       0.81163    0.12133    0.16912    1.000
    N4526    N        0.79399    0.16022    0.18571    1.000
    Si4527   Si       0.76425    0.23001    0.24398    1.000
    N4528    N        0.81718    0.22335    0.17082    1.000
    N4529    N        0.76850    0.06613    0.32056    1.000
    Si4530   Si       0.77588    0.05411    0.27979    1.000
    Si4531   Si       0.80830    0.06929    0.33706    1.000
    N4532    N        0.77539    0.01254    0.28283    1.000
    N4533    N        0.79440    0.13402    0.26140    1.000
    N4534    N        0.76259    0.14028    0.33628    1.000
    N4535    N        0.76307    0.19691    0.27986    1.000
    Si4536   Si       0.79890    0.17752    0.27015    1.000
    Si4537   Si       0.80432    0.14446    0.33829    1.000
    N4538    N        0.79723    0.10177    0.48449    1.000
    Si4539   Si       0.76975    0.05710    0.40191    1.000
    Si4540   Si       0.79948    0.12552    0.40877    1.000
    N4541    N        0.76070    0.10642    0.39955    1.000
    N4542    N        0.80965    0.06807    0.38194    1.000
    N4543    N        0.78236    0.01431    0.41377    1.000
    Si4544   Si       0.78932    0.19707    0.44463    1.000
    N4545    N        0.79227    0.15474    0.43992    1.000
    N4546    N        0.80709    0.21697    0.41134    1.000
    Si4547   Si       0.77477    0.13796    0.47565    1.000
    N4548    N        0.78766    0.09376    0.55420    1.000
    Si4549   Si       0.78754    0.07192    0.51658    1.000
    N4550    N        0.78848    0.12538    0.60813    1.000
    Si4551   Si       0.75554    0.10338    0.58388    1.000
    N4552    N        0.77518    0.00815    0.55483    1.000
    Si4553   Si       0.77645    0.21098    0.58441    1.000
    N4554    N        0.77218    0.16632    0.51127    1.000
    Si4555   Si       0.79033    0.20693    0.51273    1.000
    N4556    N        0.76412    0.24045    0.50360    1.000
    N4557    N        0.80667    0.21193    0.55158    1.000
    N4558    N        0.79704    0.19497    0.62060    1.000
    N4559    N        0.75700    0.25044    0.57528    1.000
    N4560    N        0.77651    0.07144    0.64869    1.000
    Si4561   Si       0.78495    0.02925    0.65088    1.000
    Si4562   Si       0.76774    0.11303    0.65412    1.000
    N4563    N        0.79016    0.01642    0.69062    1.000
    Si4564   Si       0.76285    0.00946    0.72172    1.000
    N4565    N        0.76955    0.17918    0.71717    1.000
    Si4566   Si       0.81091    0.15639    0.62929    1.000
    Si4567   Si       0.80781    0.16909    0.69974    1.000
    N4568    N        0.79929    0.14043    0.66815    1.000
    N4569    N        0.78566    0.10291    0.83418    1.000
    N4570    N        0.78446    0.04877    0.79005    1.000
    N4571    N        0.77524    0.12574    0.76145    1.000
    Si4572   Si       0.75875    0.11830    0.80151    1.000
    Si4573   Si       0.81027    0.07732    0.81028    1.000
    Si4574   Si       0.79916    0.12457    0.87052    1.000
    Si4575   Si       0.81055    0.24655    0.83555    1.000
    N4576    N        0.80974    0.16396    0.85634    1.000
    N4577    N        0.77287    0.22261    0.83232    1.000
    Si4578   Si       0.78695    0.18141    0.82368    1.000
    N4579    N        0.80936    0.02538    0.97816    1.000
    Si4580   Si       0.79171    0.04564    0.94458    1.000
    N4581    N        0.80046    0.02064    0.90887    1.000
    N4582    N        0.80187    0.08648    0.94658    1.000
    N4583    N        0.76954    0.12241    0.90062    1.000
    Si4584   Si       0.77321    0.11769    0.94465    1.000
    Si4585   Si       0.80867    0.18921    0.96163    1.000
    N4586    N        0.78224    0.15572    0.96674    1.000
    N4587    N        0.78084    0.22150    0.94714    1.000
    Si4588   Si       0.77862    0.27676    0.01968    1.000
    N4589    N        0.76783    0.32009    0.02662    1.000
    Si4590   Si       0.79864    0.34017    0.04775    1.000
    N4591    N        0.79579    0.37444    0.07405    1.000
    Si4592   Si       0.79543    0.34382    0.10723    1.000
    Si4593   Si       0.81327    0.26986    0.08473    1.000
    N4594    N        0.75577    0.33683    0.11910    1.000
    N4595    N        0.75741    0.42879    0.03874    1.000
    Si4596   Si       0.78938    0.46082    0.04339    1.000
    N4597    N        0.80334    0.44057    0.08421    1.000
    N4598    N        0.76560    0.49455    0.05060    1.000
    Si4599   Si       0.75835    0.39693    0.06694    1.000
    Si4600   Si       0.77959    0.44008    0.12019    1.000
    N4601    N        0.79671    0.32966    0.22002    1.000
    Si4602   Si       0.80594    0.28906    0.20782    1.000
    N4603    N        0.77093    0.26514    0.21629    1.000
    Si4604   Si       0.75460    0.33694    0.22582    1.000
    N4605    N        0.79175    0.42011    0.15789    1.000
    Si4606   Si       0.81144    0.45595    0.24186    1.000
    Si4607   Si       0.77623    0.45546    0.17897    1.000
    N4608    N        0.80396    0.47858    0.20416    1.000
    N4609    N        0.76661    0.47509    0.14078    1.000
    N4610    N        0.77444    0.31802    0.31855    1.000
    Si4611   Si       0.77230    0.29197    0.35421    1.000
    N4612    N        0.81020    0.27183    0.36365    1.000
    N4613    N        0.81278    0.36276    0.27345    1.000
    Si4614   Si       0.78992    0.39793    0.28284    1.000
    N4615    N        0.79441    0.47851    0.27693    1.000
    N4616    N        0.81281    0.49625    0.34395    1.000
    N4617    N        0.81048    0.42142    0.31133    1.000
    N4618    N        0.78453    0.41991    0.24410    1.000
    Si4619   Si       0.78885    0.35912    0.37686    1.000
    Si4620   Si       0.76276    0.30337    0.42633    1.000
    N4621    N        0.80311    0.29003    0.43145    1.000
    N4622    N        0.76448    0.32274    0.38391    1.000
    Si4623   Si       0.76185    0.33090    0.49802    1.000
    Si4624   Si       0.80549    0.42423    0.42436    1.000
    N4625    N        0.79895    0.40609    0.46520    1.000
    N4626    N        0.77197    0.49789    0.45007    1.000
    N4627    N        0.76629    0.43765    0.41015    1.000
    Si4628   Si       0.81409    0.49826    0.44223    1.000
    Si4629   Si       0.75787    0.40468    0.48036    1.000
    N4630    N        0.80308    0.34882    0.56151    1.000
    Si4631   Si       0.76722    0.26816    0.53775    1.000
    Si4632   Si       0.77005    0.37730    0.55218    1.000
    N4633    N        0.80679    0.27895    0.54717    1.000
    N4634    N        0.75894    0.37225    0.51144    1.000
    N4635    N        0.80301    0.32042    0.49691    1.000
    N4636    N        0.79439    0.48602    0.57201    1.000
    N4637    N        0.77670    0.41678    0.57100    1.000
    Si4638   Si       0.76590    0.45751    0.58565    1.000
    Si4639   Si       0.76554    0.39746    0.60740    1.000
    N4640    N        0.81295    0.28318    0.73269    1.000
    Si4641   Si       0.80278    0.28674    0.62411    1.000
    N4642    N        0.75738    0.28908    0.62942    1.000
    Si4643   Si       0.75695    0.27195    0.67022    1.000
    N4644    N        0.77521    0.35530    0.72582    1.000
    Si4645   Si       0.76873    0.28306    0.73824    1.000
    N4646    N        0.80199    0.26589    0.66435    1.000
    N4647    N        0.79986    0.38059    0.62497    1.000
    N4648    N        0.76265    0.48400    0.68119    1.000
    N4649    N        0.76185    0.42392    0.69712    1.000
    N4650    N        0.77629    0.48949    0.74542    1.000
    Si4651   Si       0.77747    0.44753    0.66405    1.000
    N4652    N        0.75828    0.43702    0.62611    1.000
    Si4653   Si       0.78560    0.39773    0.71880    1.000
    N4654    N        0.79578    0.28810    0.83578    1.000
    N4655    N        0.79880    0.35866    0.80541    1.000
    Si4656   Si       0.77135    0.35316    0.77177    1.000
    Si4657   Si       0.77735    0.35851    0.84545    1.000
    N4658    N        0.76274    0.30955    0.77372    1.000
    Si4659   Si       0.75693    0.29739    0.81550    1.000
    Si4660   Si       0.77862    0.43317    0.84343    1.000
    N4661    N        0.78808    0.40972    0.75979    1.000
    N4662    N        0.76527    0.39453    0.86216    1.000
    Si4663   Si       0.78276    0.49899    0.87212    1.000
    N4664    N        0.80179    0.33812    0.87671    1.000
    Si4665   Si       0.78284    0.32774    0.91413    1.000
    N4666    N        0.77342    0.28592    0.91841    1.000
    N4667    N        0.80208    0.28042    0.98408    1.000
    N4668    N        0.80328    0.34319    0.95093    1.000
    Si4669   Si       0.79990    0.26073    0.94392    1.000
    N4670    N        0.78484    0.45673    0.87928    1.000
    N4671    N        0.77688    0.46765    0.94635    1.000
    Si4672   Si       0.80364    0.44670    0.91668    1.000
    Si4673   Si       0.75552    0.39257    0.90654    1.000
    N4674    N        0.79553    0.40501    0.92174    1.000
    Si4675   Si       0.77357    0.61027    0.01856    1.000
    N4676    N        0.77666    0.59344    0.05848    1.000
    N4677    N        0.76571    0.54803    0.11365    1.000
    Si4678   Si       0.80848    0.61536    0.08521    1.000
    N4679    N        0.77693    0.62924    0.11353    1.000
    N4680    N        0.80668    0.59483    0.99575    1.000
    Si4681   Si       0.77594    0.74234    0.08458    1.000
    N4682    N        0.77072    0.65501    0.02193    1.000
    Si4683   Si       0.80218    0.73233    0.01108    1.000
    N4684    N        0.80434    0.74934    0.05165    1.000
    N4685    N        0.80038    0.72950    0.12132    1.000
    Si4686   Si       0.80803    0.54804    0.12721    1.000
    N4687    N        0.80260    0.55040    0.17084    1.000
    Si4688   Si       0.79337    0.58856    0.19194    1.000
    N4689    N        0.79223    0.59437    0.23674    1.000
    N4690    N        0.75787    0.60382    0.17301    1.000
    N4691    N        0.78875    0.67074    0.16522    1.000
    N4692    N        0.79919    0.66406    0.24160    1.000
    Si4693   Si       0.78055    0.68383    0.20857    1.000
    Si4694   Si       0.80417    0.63559    0.14798    1.000
    Si4695   Si       0.77940    0.71249    0.15205    1.000
    N4696    N        0.78854    0.72407    0.19558    1.000
    N4697    N        0.79565    0.54340    0.28848    1.000
    Si4698   Si       0.76598    0.58397    0.34327    1.000
    N4699    N        0.76434    0.62440    0.35857    1.000
    N4700    N        0.80695    0.56765    0.34876    1.000
    Si4701   Si       0.78261    0.62855    0.26245    1.000
    N4702    N        0.80366    0.63208    0.29946    1.000
    Si4703   Si       0.76710    0.51180    0.27742    1.000
    N4704    N        0.76693    0.68592    0.31073    1.000
    Si4705   Si       0.78616    0.71927    0.28764    1.000
    Si4706   Si       0.78505    0.65307    0.33148    1.000
    N4707    N        0.76719    0.73158    0.36572    1.000
    N4708    N        0.81306    0.67479    0.35787    1.000
    N4709    N        0.75486    0.56072    0.38028    1.000
    N4710    N        0.79815    0.59911    0.41070    1.000
    Si4711   Si       0.79746    0.55922    0.39164    1.000
    Si4712   Si       0.76395    0.62511    0.40217    1.000
    N4713    N        0.80993    0.59345    0.49559    1.000
    Si4714   Si       0.80512    0.71197    0.37599    1.000
    Si4715   Si       0.80077    0.68514    0.44575    1.000
    N4716    N        0.76743    0.66434    0.42272    1.000
    N4717    N        0.79096    0.71280    0.47932    1.000
    N4718    N        0.78306    0.53395    0.51613    1.000
    Si4719   Si       0.78289    0.52712    0.55856    1.000
    Si4720   Si       0.77241    0.57568    0.50556    1.000
    Si4721   Si       0.78659    0.62594    0.55952    1.000
    N4722    N        0.75941    0.59674    0.54088    1.000
    N4723    N        0.77303    0.70992    0.55366    1.000
    Si4724   Si       0.76270    0.75073    0.55115    1.000
    N4725    N        0.80767    0.65345    0.53083    1.000
    Si4726   Si       0.81195    0.69147    0.55428    1.000
    Si4727   Si       0.79264    0.62562    0.73338    1.000
    N4728    N        0.77940    0.53448    0.64212    1.000
    N4729    N        0.78753    0.55455    0.71163    1.000
    Si4730   Si       0.78571    0.52202    0.68320    1.000
    N4731    N        0.81199    0.63068    0.69444    1.000
    N4732    N        0.78160    0.73809    0.62504    1.000
    Si4733   Si       0.79208    0.72475    0.66435    1.000
    N4734    N        0.78307    0.75553    0.69282    1.000
    Si4735   Si       0.78512    0.70192    0.72512    1.000
    N4736    N        0.78411    0.63899    0.63708    1.000
    Si4737   Si       0.77273    0.64501    0.67801    1.000
    N4738    N        0.77364    0.69109    0.68426    1.000
    Si4739   Si       0.78958    0.59316    0.79792    1.000
    N4740    N        0.78698    0.55061    0.80148    1.000
    N4741    N        0.77338    0.61104    0.86858    1.000
    N4742    N        0.75606    0.61699    0.78264    1.000
    N4743    N        0.79620    0.73512    0.85889    1.000
    Si4744   Si       0.76617    0.72226    0.79247    1.000
    N4745    N        0.80897    0.71021    0.79608    1.000
    N4746    N        0.78517    0.66586    0.75039    1.000
    N4747    N        0.76200    0.72990    0.74990    1.000
    N4748    N        0.78833    0.59362    0.93550    1.000
    Si4749   Si       0.78004    0.56673    0.96990    1.000
    N4750    N        0.80864    0.53158    0.97804    1.000
    N4751    N        0.80509    0.51895    0.90670    1.000
    Si4752   Si       0.78756    0.50979    0.94540    1.000
    Si4753   Si       0.75846    0.60932    0.90901    1.000
    N4754    N        0.77356    0.71032    0.98743    1.000
    Si4755   Si       0.76458    0.71301    0.88123    1.000
    Si4756   Si       0.79716    0.67436    0.99337    1.000
    N4757    N        0.78108    0.70052    0.91969    1.000
    N4758    N        0.79514    0.87362    0.00373    1.000
    N4759    N        0.78087    0.87824    0.07214    1.000
    N4760    N        0.80303    0.82642    0.12015    1.000
    Si4761   Si       0.81367    0.84860    0.08520    1.000
    N4762    N        0.77959    0.99686    0.04158    1.000
    N4763    N        0.76990    0.95840    0.09993    1.000
    Si4764   Si       0.78239    0.90298    0.03436    1.000
    Si4765   Si       0.79977    0.96719    0.06756    1.000
    N4766    N        0.81019    0.93668    0.04032    1.000
    Si4767   Si       0.76520    0.80625    0.12376    1.000
    N4768    N        0.76630    0.84674    0.19607    1.000
    Si4769   Si       0.77432    0.80396    0.19815    1.000
    N4770    N        0.76357    0.79139    0.23962    1.000
    Si4771   Si       0.78219    0.88358    0.17554    1.000
    N4772    N        0.75326    0.78791    0.16299    1.000
    N4773    N        0.75683    0.97830    0.21852    1.000
    N4774    N        0.76576    0.89905    0.13697    1.000
    Si4775   Si       0.78733    0.93703    0.13483    1.000
    N4776    N        0.76501    0.90696    0.20834    1.000
    Si4777   Si       0.78146    0.94541    0.21391    1.000
    N4778    N        0.79527    0.95537    0.17298    1.000
    Si4779   Si       0.79292    0.86166    0.29320    1.000
    N4780    N        0.78867    0.85949    0.33566    1.000
    Si4781   Si       0.77915    0.79703    0.28192    1.000
    N4782    N        0.78718    0.79920    0.36546    1.000
    Si4783   Si       0.76174    0.83027    0.35116    1.000
    N4784    N        0.81349    0.82555    0.27925    1.000
    Si4785   Si       0.79162    0.76144    0.34502    1.000
    N4786    N        0.75619    0.87135    0.26930    1.000
    N4787    N        0.78579    0.75977    0.30303    1.000
    Si4788   Si       0.81261    0.87674    0.36582    1.000
    Si4789   Si       0.76904    0.94405    0.35546    1.000
    N4790    N        0.77535    0.98640    0.34944    1.000
    N4791    N        0.76328    0.94546    0.27640    1.000
    Si4792   Si       0.80393    0.93706    0.28010    1.000
    Si4793   Si       0.79886    0.00146    0.31801    1.000
    N4794    N        0.79841    0.91582    0.37129    1.000
    Si4795   Si       0.77408    0.84941    0.42284    1.000
    N4796    N        0.77770    0.82708    0.45873    1.000
    N4797    N        0.81563    0.84986    0.40385    1.000
    Si4798   Si       0.76086    0.84428    0.49761    1.000
    N4799    N        0.75894    0.95227    0.39822    1.000
    N4800    N        0.80374    0.95392    0.44540    1.000
    N4801    N        0.80633    0.00438    0.48884    1.000
    Si4802   Si       0.79004    0.92537    0.41330    1.000
    N4803    N        0.77451    0.89281    0.43508    1.000
    Si4804   Si       0.78599    0.99199    0.45192    1.000
    N4805    N        0.79625    0.77583    0.56592    1.000
    N4806    N        0.78332    0.83698    0.53321    1.000
    Si4807   Si       0.76237    0.86425    0.55995    1.000
    N4808    N        0.75752    0.84789    0.60053    1.000
    Si4809   Si       0.81093    0.80144    0.53359    1.000
    Si4810   Si       0.81237    0.76542    0.60566    1.000
    N4811    N        0.81468    0.77755    0.49586    1.000
    Si4812   Si       0.79057    0.98293    0.52407    1.000
    Si4813   Si       0.78998    0.91596    0.52107    1.000
    N4814    N        0.77222    0.90609    0.56155    1.000
    N4815    N        0.75804    0.95365    0.51913    1.000
    N4816    N        0.76120    0.88700    0.50019    1.000
    N4817    N        0.75936    0.81810    0.66332    1.000
    Si4818   Si       0.76039    0.76823    0.72909    1.000
    Si4819   Si       0.79315    0.79336    0.67384    1.000
    Si4820   Si       0.77517    0.85196    0.63959    1.000
    N4821    N        0.76097    0.89007    0.65806    1.000
    Si4822   Si       0.78080    0.92149    0.68153    1.000
    N4823    N        0.75928    0.92742    0.71994    1.000
    N4824    N        0.78040    0.95693    0.65339    1.000
    N4825    N        0.79642    0.79718    0.81919    1.000
    Si4826   Si       0.77443    0.82022    0.78886    1.000
    N4827    N        0.78601    0.86330    0.79171    1.000
    Si4828   Si       0.77245    0.77219    0.84917    1.000
    N4829    N        0.78447    0.80134    0.75068    1.000
    N4830    N        0.78679    0.87318    0.87003    1.000
    Si4831   Si       0.78914    0.95551    0.82890    1.000
    N4832    N        0.76749    0.93279    0.79810    1.000
    N4833    N        0.76473    0.98008    0.85403    1.000
    Si4834   Si       0.77790    0.94341    0.75661    1.000
    N4835    N        0.77983    0.98640    0.75362    1.000
    Si4836   Si       0.80544    0.01127    0.77809    1.000
    Si4837   Si       0.76989    0.86317    0.96877    1.000
    Si4838   Si       0.77603    0.84110    0.89820    1.000
    N4839    N        0.79556    0.84492    0.93747    1.000
    Si4840   Si       0.76528    0.78353    0.97823    1.000
    N4841    N        0.76858    0.80202    0.88275    1.000
    N4842    N        0.80494    0.77047    0.99062    1.000
    Si4843   Si       0.76818    0.99586    0.89578    1.000
    N4844    N        0.76391    0.96507    0.92408    1.000
    N4845    N        0.84754    0.11744    0.06761    1.000
    N4846    N        0.85123    0.05546    0.09381    1.000
    Si4847   Si       0.82662    0.07970    0.06758    1.000
    N4848    N        0.82709    0.04925    0.03534    1.000
    Si4849   Si       0.85189    0.01810    0.05194    1.000
    Si4850   Si       0.82423    0.14418    0.09544    1.000
    N4851    N        0.85270    0.20343    0.05600    1.000
    Si4852   Si       0.86181    0.21272    0.01261    1.000
    N4853    N        0.85839    0.16431    0.11681    1.000
    N4854    N        0.82145    0.20292    0.99991    1.000
    N4855    N        0.84689    0.26039    0.11107    1.000
    Si4856   Si       0.83537    0.04615    0.23609    1.000
    N4857    N        0.85420    0.11281    0.16753    1.000
    Si4858   Si       0.83552    0.04248    0.13188    1.000
    N4859    N        0.86863    0.07029    0.22338    1.000
    N4860    N        0.81170    0.20715    0.24068    1.000
    Si4861   Si       0.81670    0.25595    0.14382    1.000
    N4862    N        0.86011    0.17574    0.19507    1.000
    Si4863   Si       0.87028    0.15512    0.15725    1.000
    Si4864   Si       0.82033    0.19187    0.20058    1.000
    Si4865   Si       0.82593    0.11008    0.28129    1.000
    N4866    N        0.82759    0.03271    0.32271    1.000
    Si4867   Si       0.86357    0.02462    0.29876    1.000
    N4868    N        0.82361    0.10713    0.32428    1.000
    N4869    N        0.86484    0.12733    0.27148    1.000
    N4870    N        0.81441    0.07206    0.26576    1.000
    N4871    N        0.85018    0.01211    0.25825    1.000
    N4872    N        0.83628    0.23497    0.29825    1.000
    Si4873   Si       0.84982    0.19964    0.32136    1.000
    N4874    N        0.85671    0.20964    0.36337    1.000
    Si4875   Si       0.84093    0.23529    0.25616    1.000
    N4876    N        0.81949    0.17152    0.30946    1.000
    N4877    N        0.87271    0.03005    0.39123    1.000
    Si4878   Si       0.84110    0.03070    0.48334    1.000
    N4879    N        0.83797    0.11062    0.42525    1.000
    Si4880   Si       0.84770    0.06804    0.40515    1.000
    Si4881   Si       0.83418    0.09220    0.46571    1.000
    N4882    N        0.83893    0.05383    0.44657    1.000
    N4883    N        0.87079    0.10309    0.48716    1.000
    Si4884   Si       0.81634    0.25884    0.40563    1.000
    Si4885   Si       0.83442    0.18903    0.39500    1.000
    Si4886   Si       0.85981    0.19317    0.46751    1.000
    N4887    N        0.81747    0.20630    0.47686    1.000
    N4888    N        0.81485    0.15459    0.37836    1.000
    N4889    N        0.85975    0.17366    0.42896    1.000
    N4890    N        0.84976    0.12414    0.55315    1.000
    N4891    N        0.84578    0.07437    0.59877    1.000
    N4892    N        0.83076    0.05926    0.51609    1.000
    Si4893   Si       0.85241    0.03169    0.60693    1.000
    Si4894   Si       0.86031    0.09010    0.52726    1.000
    Si4895   Si       0.82077    0.10762    0.58242    1.000
    N4896    N        0.84802    0.13619    0.61605    1.000
    Si4897   Si       0.82993    0.24742    0.56662    1.000
    N4898    N        0.82194    0.24995    0.60662    1.000
    N4899    N        0.86984    0.24592    0.54584    1.000
    N4900    N        0.86443    0.04040    0.69499    1.000
    N4901    N        0.82157    0.01359    0.63334    1.000
    Si4902   Si       0.83306    0.00775    0.70462    1.000
    N4903    N        0.83514    0.15273    0.72955    1.000
    Si4904   Si       0.81534    0.22738    0.64358    1.000
    N4905    N        0.82886    0.20106    0.67679    1.000
    N4906    N        0.84660    0.22522    0.74289    1.000
    Si4907   Si       0.85972    0.21640    0.70338    1.000
    N4908    N        0.86817    0.25516    0.68670    1.000
    N4909    N        0.83935    0.04988    0.82410    1.000
    N4910    N        0.83252    0.10605    0.78709    1.000
    N4911    N        0.83480    0.01873    0.74803    1.000
    Si4912   Si       0.81454    0.14036    0.76697    1.000
    Si4913   Si       0.84526    0.20925    0.78320    1.000
    N4914    N        0.83329    0.24769    0.79853    1.000
    N4915    N        0.83423    0.22886    0.86917    1.000
    N4916    N        0.81447    0.17724    0.79090    1.000
    Si4917   Si       0.85048    0.01147    0.98093    1.000
    Si4918   Si       0.84135    0.09249    0.92586    1.000
    N4919    N        0.83863    0.11173    0.88647    1.000
    Si4920   Si       0.84251    0.01256    0.90961    1.000
    N4921    N        0.85840    0.05074    0.92168    1.000
    Si4922   Si       0.83705    0.18613    0.88247    1.000
    Si4923   Si       0.86009    0.25352    0.89479    1.000
    N4924    N        0.83151    0.18184    0.92467    1.000
    N4925    N        0.84161    0.26026    0.93394    1.000
    N4926    N        0.82869    0.34495    0.01696    1.000
    Si4927   Si       0.85123    0.38229    0.01155    1.000
    N4928    N        0.81311    0.31334    0.08129    1.000
    N4929    N        0.82094    0.47256    0.01283    1.000
    N4930    N        0.85715    0.40197    0.05178    1.000
    Si4931   Si       0.82844    0.40437    0.08320    1.000
    N4932    N        0.84677    0.40767    0.12194    1.000
    Si4933   Si       0.84925    0.32032    0.15141    1.000
    Si4934   Si       0.82610    0.35882    0.23318    1.000
    N4935    N        0.83497    0.27493    0.23676    1.000
    N4936    N        0.82281    0.29013    0.16762    1.000
    N4937    N        0.82087    0.35233    0.14062    1.000
    N4938    N        0.86460    0.33681    0.23894    1.000
    N4939    N        0.85146    0.43890    0.24160    1.000
    Si4940   Si       0.87092    0.50311    0.13131    1.000
    N4941    N        0.83635    0.38655    0.20185    1.000
    Si4942   Si       0.82690    0.39274    0.15887    1.000
    N4943    N        0.85872    0.50097    0.17389    1.000
    Si4944   Si       0.87096    0.41503    0.20984    1.000
    N4945    N        0.83698    0.30282    0.30052    1.000
    Si4946   Si       0.86005    0.30163    0.26417    1.000
    Si4947   Si       0.83651    0.26937    0.32856    1.000
    N4948    N        0.81774    0.36187    0.34227    1.000
    Si4949   Si       0.81261    0.33663    0.30820    1.000
    Si4950   Si       0.83777    0.40178    0.33701    1.000
    N4951    N        0.85965    0.47097    0.29971    1.000
    N4952    N        0.84653    0.44044    0.35931    1.000
    Si4953   Si       0.81573    0.46450    0.31173    1.000
    N4954    N        0.85913    0.28184    0.47901    1.000
    Si4955   Si       0.82900    0.30818    0.46376    1.000
    N4956    N        0.84422    0.34576    0.44757    1.000
    Si4957   Si       0.85214    0.37159    0.41363    1.000
    Si4958   Si       0.83675    0.38547    0.47049    1.000
    N4959    N        0.81207    0.38664    0.40344    1.000
    N4960    N        0.85958    0.25957    0.41292    1.000
    Si4961   Si       0.87452    0.44764    0.43425    1.000
    Si4962   Si       0.83582    0.48573    0.38056    1.000
    N4963    N        0.86037    0.40711    0.43940    1.000
    N4964    N        0.83220    0.46366    0.42224    1.000
    Si4965   Si       0.83042    0.35911    0.59901    1.000
    N4966    N        0.86223    0.32114    0.53368    1.000
    Si4967   Si       0.81969    0.31915    0.53677    1.000
    N4968    N        0.85897    0.38018    0.57374    1.000
    N4969    N        0.83387    0.31664    0.61964    1.000
    N4970    N        0.85972    0.38868    0.50512    1.000
    Si4971   Si       0.83560    0.48809    0.58689    1.000
    N4972    N        0.84639    0.44483    0.59259    1.000
    N4973    N        0.86780    0.50506    0.56100    1.000
    N4974    N        0.84208    0.32044    0.68684    1.000
    Si4975   Si       0.83268    0.27964    0.69387    1.000
    N4976    N        0.85984    0.37282    0.63890    1.000
    Si4977   Si       0.86407    0.32901    0.65009    1.000
    Si4978   Si       0.82138    0.34571    0.71539    1.000
    N4979    N        0.82105    0.38446    0.69565    1.000
    Si4980   Si       0.84577    0.47721    0.66566    1.000
    Si4981   Si       0.82714    0.39639    0.65502    1.000
    Si4982   Si       0.81854    0.49064    0.73534    1.000
    N4983    N        0.81914    0.44025    0.66001    1.000
    N4984    N        0.84058    0.50180    0.62878    1.000
    N4985    N        0.82367    0.50234    0.69390    1.000
    N4986    N        0.83880    0.45213    0.74564    1.000
    N4987    N        0.85650    0.33442    0.82820    1.000
    Si4988   Si       0.84089    0.35896    0.79698    1.000
    Si4989   Si       0.82721    0.31389    0.85161    1.000
    N4990    N        0.84495    0.34804    0.75196    1.000
    Si4991   Si       0.84343    0.26882    0.76217    1.000
    Si4992   Si       0.85556    0.42877    0.83012    1.000
    N4993    N        0.85696    0.40109    0.79390    1.000
    Si4994   Si       0.82313    0.42613    0.77770    1.000
    N4995    N        0.85581    0.40486    0.86706    1.000
    N4996    N        0.81427    0.43737    0.81887    1.000
    N4997    N        0.86131    0.29322    0.87531    1.000
    Si4998   Si       0.87193    0.27069    0.96489    1.000
    N4999    N        0.86170    0.31370    0.96881    1.000
    Si5000   Si       0.82004    0.31980    0.98346    1.000
    N5001    N        0.86191    0.37233    0.93057    1.000
    Si5002   Si       0.82308    0.38210    0.94599    1.000
    N5003    N        0.83988    0.45657    0.93716    1.000
    Si5004   Si       0.83842    0.44755    0.97906    1.000
    N5005    N        0.83174    0.40477    0.98095    1.000
    Si5006   Si       0.84855    0.54834    0.07975    1.000
    N5007    N        0.83268    0.54692    0.04097    1.000
    Si5008   Si       0.83672    0.58936    0.02745    1.000
    N5009    N        0.83331    0.62443    0.05294    1.000
    N5010    N        0.82774    0.58124    0.10325    1.000
    Si5011   Si       0.83281    0.51614    0.00910    1.000
    N5012    N        0.83640    0.51905    0.11178    1.000
    Si5013   Si       0.86909    0.60510    0.10746    1.000
    N5014    N        0.83809    0.63871    0.11980    1.000
    N5015    N        0.87211    0.70927    0.11425    1.000
    N5016    N        0.83315    0.70276    0.99453    1.000
    Si5017   Si       0.87126    0.62009    0.18125    1.000
    N5018    N        0.83028    0.53539    0.23043    1.000
    N5019    N        0.82817    0.61475    0.18139    1.000
    Si5020   Si       0.82324    0.51569    0.19273    1.000
    N5021    N        0.85359    0.70034    0.21870    1.000
    N5022    N        0.85167    0.74601    0.16779    1.000
    Si5023   Si       0.84385    0.74007    0.12460    1.000
    Si5024   Si       0.83056    0.73243    0.20215    1.000
    Si5025   Si       0.87011    0.66633    0.12575    1.000
    N5026    N        0.84830    0.58984    0.27755    1.000
    N5027    N        0.86264    0.53962    0.31875    1.000
    Si5028   Si       0.81863    0.53388    0.32489    1.000
    Si5029   Si       0.84500    0.62733    0.29845    1.000
    N5030    N        0.86447    0.62915    0.33760    1.000
    Si5031   Si       0.81716    0.56505    0.25768    1.000
    N5032    N        0.82855    0.71529    0.27842    1.000
    Si5033   Si       0.85933    0.74756    0.27010    1.000
    N5034    N        0.82993    0.74730    0.36335    1.000
    N5035    N        0.86612    0.65479    0.27148    1.000
    Si5036   Si       0.83717    0.68126    0.25425    1.000
    Si5037   Si       0.85151    0.66024    0.36483    1.000
    Si5038   Si       0.86109    0.54505    0.41737    1.000
    Si5039   Si       0.83480    0.61404    0.43009    1.000
    N5040    N        0.84962    0.57675    0.44536    1.000
    N5041    N        0.82172    0.52535    0.40604    1.000
    Si5042   Si       0.83681    0.55994    0.48416    1.000
    N5043    N        0.83790    0.51696    0.47276    1.000
    Si5044   Si       0.82530    0.73529    0.49734    1.000
    N5045    N        0.85817    0.63372    0.39977    1.000
    N5046    N        0.82207    0.64941    0.45836    1.000
    Si5047   Si       0.84452    0.74652    0.42710    1.000
    N5048    N        0.85710    0.73301    0.46630    1.000
    N5049    N        0.81651    0.71393    0.41713    1.000
    Si5050   Si       0.85132    0.59735    0.61001    1.000
    Si5051   Si       0.85778    0.54781    0.55907    1.000
    N5052    N        0.86370    0.56216    0.51736    1.000
    N5053    N        0.82104    0.61630    0.58529    1.000
    N5054    N        0.81910    0.54351    0.57946    1.000
    N5055    N        0.87009    0.62920    0.50459    1.000
    Si5056   Si       0.82765    0.63380    0.49744    1.000
    N5057    N        0.84149    0.71941    0.53486    1.000
    N5058    N        0.82608    0.68356    0.59508    1.000
    N5059    N        0.85221    0.74861    0.60297    1.000
    Si5060   Si       0.82053    0.64693    0.61653    1.000
    Si5061   Si       0.85082    0.70887    0.62196    1.000
    Si5062   Si       0.81823    0.53870    0.62335    1.000
    N5063    N        0.85333    0.57710    0.70556    1.000
    Si5064   Si       0.83889    0.60481    0.67260    1.000
    Si5065   Si       0.82489    0.56123    0.73482    1.000
    N5066    N        0.83487    0.57388    0.64116    1.000
    N5067    N        0.85582    0.63164    0.64067    1.000
    Si5068   Si       0.85835    0.70722    0.69906    1.000
    N5069    N        0.83481    0.71388    0.66267    1.000
    N5070    N        0.82793    0.70941    0.72915    1.000
    N5071    N        0.87663    0.66798    0.69885    1.000
    Si5072   Si       0.84750    0.61572    0.78725    1.000
    Si5073   Si       0.82472    0.52658    0.80481    1.000
    N5074    N        0.83619    0.52448    0.75874    1.000
    N5075    N        0.82143    0.61465    0.82066    1.000
    Si5076   Si       0.81669    0.61390    0.86421    1.000
    N5077    N        0.86886    0.52166    0.80987    1.000
    N5078    N        0.81618    0.59664    0.76000    1.000
    N5079    N        0.81164    0.51375    0.84432    1.000
    N5080    N        0.85352    0.65239    0.76398    1.000
    Si5081   Si       0.82954    0.72229    0.83169    1.000
    N5082    N        0.85441    0.68997    0.84593    1.000
    Si5083   Si       0.82449    0.68439    0.76432    1.000
    N5084    N        0.85669    0.75446    0.82158    1.000
    Si5085   Si       0.83351    0.53563    0.87739    1.000
    N5086    N        0.83978    0.57931    0.87714    1.000
    Si5087   Si       0.82416    0.61049    0.95503    1.000
    N5088    N        0.86482    0.60688    0.94160    1.000
    N5089    N        0.86904    0.51349    0.87810    1.000
    N5090    N        0.81192    0.65295    0.95820    1.000
    Si5091   Si       0.81774    0.67560    0.92166    1.000
    Si5092   Si       0.86980    0.66253    0.87472    1.000
    N5093    N        0.86599    0.75641    0.96085    1.000
    N5094    N        0.82901    0.64848    0.88849    1.000
    Si5095   Si       0.86453    0.71468    0.96534    1.000
    N5096    N        0.85432    0.69840    0.92376    1.000
    Si5097   Si       0.83426    0.77924    0.05847    1.000
    N5098    N        0.84930    0.77516    0.09805    1.000
    Si5099   Si       0.82600    0.84656    0.01630    1.000
    N5100    N        0.84920    0.87251    0.08993    1.000
    N5101    N        0.86153    0.87073    0.02338    1.000
    N5102    N        0.86459    0.77209    0.02920    1.000
    N5103    N        0.82218    0.82087    0.05345    1.000
    N5104    N        0.83771    0.98611    0.07724    1.000
    Si5105   Si       0.84996    0.94663    0.02774    1.000
    N5106    N        0.85382    0.99045    0.01786    1.000
    Si5107   Si       0.84903    0.97043    0.11567    1.000
    N5108    N        0.82760    0.93357    0.11948    1.000
    Si5109   Si       0.85329    0.79675    0.20925    1.000
    Si5110   Si       0.82964    0.83324    0.15360    1.000
    N5111    N        0.82295    0.87630    0.16183    1.000
    N5112    N        0.81762    0.80587    0.18594    1.000
    N5113    N        0.86489    0.83050    0.23410    1.000
    N5114    N        0.84157    0.76269    0.23150    1.000
    N5115    N        0.81767    0.94956    0.24024    1.000
    Si5116   Si       0.84552    0.89505    0.12818    1.000
    Si5117   Si       0.85366    0.97380    0.24118    1.000
    N5118    N        0.82773    0.00051    0.13875    1.000
    N5119    N        0.85928    0.97984    0.19738    1.000
    Si5120   Si       0.82138    0.99097    0.18088    1.000
    Si5121   Si       0.85669    0.82287    0.27706    1.000
    N5122    N        0.85659    0.81011    0.36106    1.000
    N5123    N        0.87155    0.78398    0.28985    1.000
    N5124    N        0.85325    0.88253    0.35216    1.000
    Si5125   Si       0.86899    0.76714    0.36559    1.000
    Si5126   Si       0.85726    0.89283    0.30775    1.000
    N5127    N        0.82215    0.96426    0.30803    1.000
    Si5128   Si       0.86266    0.96079    0.32425    1.000
    N5129    N        0.81882    0.89684    0.28814    1.000
    N5130    N        0.86138    0.95626    0.36791    1.000
    N5131    N        0.84036    0.84499    0.46748    1.000
    Si5132   Si       0.84630    0.86463    0.42947    1.000
    N5133    N        0.82481    0.78576    0.42496    1.000
    Si5134   Si       0.82280    0.80759    0.38854    1.000
    Si5135   Si       0.81827    0.80723    0.46342    1.000
    N5136    N        0.86974    0.97817    0.43244    1.000
    N5137    N        0.84591    0.90758    0.42280    1.000
    Si5138   Si       0.84711    0.94465    0.44553    1.000
    Si5139   Si       0.86523    0.91484    0.38242    1.000
    N5140    N        0.84931    0.82362    0.53409    1.000
    Si5141   Si       0.85071    0.85737    0.50778    1.000
    N5142    N        0.82940    0.95568    0.60500    1.000
    N5143    N        0.82698    0.89521    0.51413    1.000
    Si5144   Si       0.84430    0.96538    0.56705    1.000
    Si5145   Si       0.86184    0.92040    0.51924    1.000
    N5146    N        0.81830    0.95214    0.53619    1.000
    N5147    N        0.85552    0.00875    0.56829    1.000
    N5148    N        0.82353    0.81327    0.69706    1.000
    Si5149   Si       0.84940    0.81855    0.65954    1.000
    Si5150   Si       0.82420    0.82160    0.73868    1.000
    N5151    N        0.81822    0.85771    0.63531    1.000
    N5152    N        0.83486    0.86383    0.74265    1.000
    N5153    N        0.81817    0.79500    0.63759    1.000
    Si5154   Si       0.84483    0.88517    0.65648    1.000
    N5155    N        0.84178    0.97246    0.68223    1.000
    Si5156   Si       0.82028    0.97092    0.64321    1.000
    Si5157   Si       0.83864    0.90242    0.72438    1.000
    N5158    N        0.81970    0.90505    0.68751    1.000
    Si5159   Si       0.83897    0.79271    0.81176    1.000
    N5160    N        0.84909    0.80190    0.76893    1.000
    N5161    N        0.86242    0.81714    0.83733    1.000
    Si5162   Si       0.82270    0.88264    0.78145    1.000
    N5163    N        0.84512    0.88555    0.81883    1.000
    Si5164   Si       0.82387    0.88873    0.85557    1.000
    N5165    N        0.81736    0.93433    0.85575    1.000
    N5166    N        0.81800    0.98718    0.81215    1.000
    N5167    N        0.81683    0.92139    0.75659    1.000
    Si5168   Si       0.85331    0.00886    0.82974    1.000
    N5169    N        0.84256    0.82176    0.98482    1.000
    Si5170   Si       0.83864    0.83728    0.94468    1.000
    N5171    N        0.85043    0.80805    0.91552    1.000
    N5172    N        0.85196    0.86795    0.88427    1.000
    N5173    N        0.85994    0.87483    0.95191    1.000
    Si5174   Si       0.84547    0.77947    0.99016    1.000
    Si5175   Si       0.86288    0.82550    0.87859    1.000
    Si5176   Si       0.85684    0.94970    0.86952    1.000
    N5177    N        0.85539    0.93182    0.98747    1.000
    N5178    N        0.85233    0.99358    0.87259    1.000
    N5179    N        0.85869    0.99042    0.94457    1.000
    N5180    N        0.86146    0.93168    0.90972    1.000
    N5181    N        0.90481    0.11316    0.01600    1.000
    Si5182   Si       0.89546    0.05123    0.08972    1.000
    N5183    N        0.91177    0.09132    0.08333    1.000
    Si5184   Si       0.91318    0.03040    0.01558    1.000
    N5185    N        0.89332    0.03142    0.05240    1.000
    Si5186   Si       0.88989    0.11929    0.05731    1.000
    N5187    N        0.91973    0.02922    0.11778    1.000
    N5188    N        0.90619    0.22239    0.09207    1.000
    N5189    N        0.90682    0.15835    0.06522    1.000
    Si5190   Si       0.87927    0.18849    0.08582    1.000
    N5191    N        0.93000    0.23105    0.03000    1.000
    N5192    N        0.87632    0.25193    0.00468    1.000
    N5193    N        0.92295    0.07893    0.18284    1.000
    Si5194   Si       0.87730    0.07969    0.18204    1.000
    Si5195   Si       0.89410    0.01057    0.14852    1.000
    N5196    N        0.87009    0.04472    0.15787    1.000
    N5197    N        0.91209    0.14746    0.16211    1.000
    N5198    N        0.88090    0.22308    0.24212    1.000
    Si5199   Si       0.89256    0.20066    0.20682    1.000
    N5200    N        0.91143    0.21289    0.16871    1.000
    Si5201   Si       0.93177    0.24894    0.16747    1.000
    N5202    N        0.93150    0.18352    0.21778    1.000
    N5203    N        0.91093    0.11519    0.32309    1.000
    N5204    N        0.88921    0.05769    0.29103    1.000
    Si5205   Si       0.88699    0.08694    0.25854    1.000
    Si5206   Si       0.92402    0.07391    0.31206    1.000
    Si5207   Si       0.90997    0.11671    0.36527    1.000
    N5208    N        0.92278    0.04950    0.34740    1.000
    N5209    N        0.92728    0.10003    0.25860    1.000
    Si5210   Si       0.89721    0.14404    0.29451    1.000
    N5211    N        0.88669    0.18487    0.30643    1.000
    Si5212   Si       0.91337    0.24991    0.25074    1.000
    Si5213   Si       0.92785    0.19825    0.30517    1.000
    N5214    N        0.88509    0.09105    0.38923    1.000
    Si5215   Si       0.90761    0.05434    0.38867    1.000
    N5216    N        0.91362    0.12662    0.43951    1.000
    Si5217   Si       0.87462    0.13383    0.41543    1.000
    N5218    N        0.89462    0.22319    0.46487    1.000
    N5219    N        0.91879    0.23111    0.38676    1.000
    Si5220   Si       0.90128    0.13436    0.48278    1.000
    Si5221   Si       0.87913    0.24387    0.37850    1.000
    Si5222   Si       0.92586    0.18820    0.38113    1.000
    N5223    N        0.89928    0.15513    0.38013    1.000
    N5224    N        0.91109    0.11727    0.59219    1.000
    N5225    N        0.89219    0.06685    0.54514    1.000
    Si5226   Si       0.92215    0.09534    0.55607    1.000
    Si5227   Si       0.88551    0.02369    0.54024    1.000
    N5228    N        0.91640    0.13134    0.52934    1.000
    Si5229   Si       0.87589    0.10266    0.61312    1.000
    N5230    N        0.87729    0.01014    0.49806    1.000
    N5231    N        0.92739    0.24534    0.58359    1.000
    Si5232   Si       0.90190    0.21957    0.56033    1.000
    N5233    N        0.88970    0.17953    0.57599    1.000
    Si5234   Si       0.91725    0.16006    0.60769    1.000
    Si5235   Si       0.87851    0.15523    0.54143    1.000
    N5236    N        0.92833    0.20451    0.52902    1.000
    N5237    N        0.87322    0.16755    0.49954    1.000
    Si5238   Si       0.87220    0.03594    0.74035    1.000
    N5239    N        0.88949    0.08710    0.65030    1.000
    Si5240   Si       0.89180    0.04478    0.66309    1.000
    N5241    N        0.89242    0.01986    0.62624    1.000
    Si5242   Si       0.91815    0.11445    0.66878    1.000
    N5243    N        0.90317    0.11721    0.70930    1.000
    Si5244   Si       0.87878    0.14962    0.72696    1.000
    N5245    N        0.91932    0.15468    0.65237    1.000
    N5246    N        0.88925    0.18588    0.70436    1.000
    Si5247   Si       0.92414    0.19108    0.67763    1.000
    N5248    N        0.92435    0.22713    0.65127    1.000
    N5249    N        0.88738    0.10849    0.83030    1.000
    N5250    N        0.88742    0.07066    0.76170    1.000
    Si5251   Si       0.92856    0.09912    0.84573    1.000
    Si5252   Si       0.87496    0.10041    0.78981    1.000
    N5253    N        0.89048    0.13392    0.76658    1.000
    Si5254   Si       0.87564    0.12719    0.86852    1.000
    Si5255   Si       0.91878    0.10063    0.74654    1.000
    N5256    N        0.87549    0.16996    0.86888    1.000
    N5257    N        0.92893    0.24148    0.77221    1.000
    Si5258   Si       0.92602    0.20549    0.79739    1.000
    N5259    N        0.88329    0.19719    0.79628    1.000
    Si5260   Si       0.90884    0.19826    0.87273    1.000
    Si5261   Si       0.88820    0.06347    0.94954    1.000
    N5262    N        0.88462    0.04099    0.98484    1.000
    N5263    N        0.91179    0.11067    0.88644    1.000
    N5264    N        0.87225    0.10400    0.95490    1.000
    Si5265   Si       0.92816    0.20048    0.99952    1.000
    N5266    N        0.88722    0.18033    0.99642    1.000
    Si5267   Si       0.89362    0.13517    0.97959    1.000
    Si5268   Si       0.92839    0.23770    0.92910    1.000
    N5269    N        0.89513    0.22828    0.89970    1.000
    N5270    N        0.90912    0.35262    0.05658    1.000
    N5271    N        0.90440    0.28533    0.06925    1.000
    Si5272   Si       0.90770    0.26997    0.03052    1.000
    Si5273   Si       0.91019    0.32490    0.08957    1.000
    N5274    N        0.92248    0.30368    0.00655    1.000
    Si5275   Si       0.92367    0.34727    0.01523    1.000
    N5276    N        0.88003    0.32304    0.11938    1.000
    Si5277   Si       0.88971    0.26196    0.10563    1.000
    Si5278   Si       0.89738    0.39346    0.06299    1.000
    N5279    N        0.91026    0.39934    0.10419    1.000
    N5280    N        0.92463    0.41557    0.03741    1.000
    Si5281   Si       0.89934    0.33506    0.21365    1.000
    Si5282   Si       0.91425    0.31960    0.15177    1.000
    N5283    N        0.91836    0.27522    0.13677    1.000
    N5284    N        0.88023    0.31709    0.17941    1.000
    N5285    N        0.93078    0.34969    0.18612    1.000
    N5286    N        0.92995    0.26330    0.21194    1.000
    Si5287   Si       0.89594    0.50581    0.19736    1.000
    N5288    N        0.89040    0.46765    0.11987    1.000
    Si5289   Si       0.92766    0.49104    0.12570    1.000
    Si5290   Si       0.92818    0.39546    0.18537    1.000
    N5291    N        0.88916    0.41418    0.17023    1.000
    N5292    N        0.91365    0.40476    0.22575    1.000
    N5293    N        0.89799    0.48526    0.23411    1.000
    Si5294   Si       0.88443    0.42410    0.13015    1.000
    Si5295   Si       0.90738    0.28574    0.31752    1.000
    N5296    N        0.90535    0.32805    0.31953    1.000
    N5297    N        0.89509    0.27823    0.27686    1.000
    Si5298   Si       0.89697    0.36050    0.34650    1.000
    N5299    N        0.87745    0.27002    0.34324    1.000
    Si5300   Si       0.91872    0.41264    0.31654    1.000
    N5301    N        0.91743    0.44217    0.28295    1.000
    N5302    N        0.91678    0.44541    0.34618    1.000
    Si5303   Si       0.88227    0.46001    0.26471    1.000
    N5304    N        0.87786    0.39353    0.32356    1.000
    Si5305   Si       0.87790    0.46208    0.33946    1.000
    N5306    N        0.87618    0.49505    0.36884    1.000
    N5307    N        0.92080    0.28987    0.44835    1.000
    N5308    N        0.87808    0.35725    0.38411    1.000
    Si5309   Si       0.88412    0.26496    0.44776    1.000
    N5310    N        0.87462    0.45971    0.47565    1.000
    N5311    N        0.91951    0.40907    0.48311    1.000
    N5312    N        0.91466    0.44316    0.41992    1.000
    Si5313   Si       0.88135    0.50395    0.47526    1.000
    N5314    N        0.91821    0.36716    0.54075    1.000
    N5315    N        0.92244    0.28636    0.51782    1.000
    Si5316   Si       0.87756    0.28223    0.51751    1.000
    Si5317   Si       0.87539    0.36223    0.53714    1.000
    N5318    N        0.92622    0.35900    0.61838    1.000
    Si5319   Si       0.90168    0.48464    0.54174    1.000
    N5320    N        0.91035    0.41851    0.59911    1.000
    N5321    N        0.88750    0.44320    0.54016    1.000
    Si5322   Si       0.87540    0.42106    0.57486    1.000
    N5323    N        0.91380    0.50758    0.50530    1.000
    Si5324   Si       0.88235    0.42549    0.50092    1.000
    N5325    N        0.90321    0.30205    0.64720    1.000
    N5326    N        0.91451    0.34377    0.71629    1.000
    Si5327   Si       0.90722    0.26427    0.66994    1.000
    Si5328   Si       0.92157    0.38671    0.70726    1.000
    N5329    N        0.91027    0.40671    0.66997    1.000
    Si5330   Si       0.91615    0.44862    0.67225    1.000
    Si5331   Si       0.89879    0.38968    0.63033    1.000
    N5332    N        0.87925    0.46340    0.69000    1.000
    N5333    N        0.90083    0.41183    0.73677    1.000
    Si5334   Si       0.87917    0.45090    0.73126    1.000
    N5335    N        0.90670    0.35574    0.78265    1.000
    Si5336   Si       0.88949    0.32067    0.85296    1.000
    N5337    N        0.91697    0.30040    0.82577    1.000
    Si5338   Si       0.91650    0.28166    0.78368    1.000
    N5339    N        0.87945    0.29061    0.76134    1.000
    Si5340   Si       0.88650    0.33264    0.74971    1.000
    Si5341   Si       0.89737    0.39685    0.77760    1.000
    N5342    N        0.89411    0.47789    0.76036    1.000
    N5343    N        0.88464    0.46075    0.82982    1.000
    Si5344   Si       0.91567    0.46155    0.79689    1.000
    Si5345   Si       0.88940    0.50252    0.84172    1.000
    N5346    N        0.92866    0.42153    0.79807    1.000
    N5347    N        0.90422    0.35565    0.87667    1.000
    N5348    N        0.91159    0.27042    0.94898    1.000
    Si5349   Si       0.88556    0.34909    0.95802    1.000
    N5350    N        0.92501    0.33861    0.94414    1.000
    N5351    N        0.89166    0.37530    0.99468    1.000
    N5352    N        0.90276    0.42371    0.91392    1.000
    N5353    N        0.90019    0.49686    0.93686    1.000
    N5354    N        0.88577    0.44898    0.97822    1.000
    Si5355   Si       0.90104    0.49042    0.98084    1.000
    Si5356   Si       0.91028    0.41658    0.99511    1.000
    Si5357   Si       0.88210    0.45575    0.93452    1.000
    Si5358   Si       0.88187    0.38919    0.89585    1.000
    N5359    N        0.88625    0.57068    0.08283    1.000
    Si5360   Si       0.92347    0.54645    0.08465    1.000
    Si5361   Si       0.90064    0.55434    0.01077    1.000
    N5362    N        0.87528    0.59241    0.00893    1.000
    N5363    N        0.87476    0.51978    0.99982    1.000
    N5364    N        0.89885    0.64205    0.10328    1.000
    Si5365   Si       0.90883    0.73074    0.10496    1.000
    N5366    N        0.91713    0.73416    0.06108    1.000
    N5367    N        0.90532    0.53074    0.12592    1.000
    N5368    N        0.89392    0.61239    0.21866    1.000
    N5369    N        0.88361    0.59329    0.14835    1.000
    N5370    N        0.90419    0.54966    0.19690    1.000
    Si5371   Si       0.91552    0.57369    0.23078    1.000
    Si5372   Si       0.91206    0.56359    0.15568    1.000
    N5373    N        0.91560    0.72097    0.17726    1.000
    N5374    N        0.88141    0.65928    0.16838    1.000
    Si5375   Si       0.89206    0.69000    0.19624    1.000
    N5376    N        0.91870    0.67834    0.22816    1.000
    Si5377   Si       0.89467    0.75861    0.16929    1.000
    Si5378   Si       0.90265    0.64303    0.24966    1.000
    N5379    N        0.91070    0.55508    0.26936    1.000
    N5380    N        0.91106    0.58657    0.32998    1.000
    Si5381   Si       0.89092    0.53164    0.35242    1.000
    Si5382   Si       0.88276    0.57106    0.29775    1.000
    Si5383   Si       0.88772    0.60187    0.36457    1.000
    N5384    N        0.92830    0.52248    0.33089    1.000
    N5385    N        0.89935    0.73144    0.27562    1.000
    Si5386   Si       0.91565    0.71365    0.36423    1.000
    N5387    N        0.90433    0.75272    0.34245    1.000
    N5388    N        0.91548    0.60321    0.47261    1.000
    N5389    N        0.89298    0.52032    0.43661    1.000
    N5390    N        0.92055    0.62037    0.39150    1.000
    N5391    N        0.87612    0.56154    0.38015    1.000
    N5392    N        0.92923    0.74005    0.46114    1.000
    Si5393   Si       0.90608    0.64549    0.48405    1.000
    N5394    N        0.88722    0.68418    0.37750    1.000
    Si5395   Si       0.89703    0.65512    0.41044    1.000
    Si5396   Si       0.89389    0.70991    0.46649    1.000
    N5397    N        0.88320    0.75472    0.40605    1.000
    N5398    N        0.89889    0.67195    0.44947    1.000
    Si5399   Si       0.92515    0.75871    0.42127    1.000
    Si5400   Si       0.92061    0.57837    0.58224    1.000
    Si5401   Si       0.89409    0.59192    0.51044    1.000
    N5402    N        0.87802    0.57704    0.58421    1.000
    N5403    N        0.92664    0.58187    0.53907    1.000
    Si5404   Si       0.92550    0.70748    0.61164    1.000
    N5405    N        0.91199    0.70771    0.56999    1.000
    N5406    N        0.90314    0.70571    0.50858    1.000
    Si5407   Si       0.88395    0.72503    0.54145    1.000
    N5408    N        0.92344    0.75068    0.61762    1.000
    N5409    N        0.90791    0.61193    0.73027    1.000
    N5410    N        0.91612    0.56263    0.67455    1.000
    Si5411   Si       0.89590    0.57609    0.70915    1.000
    N5412    N        0.89081    0.73383    0.70987    1.000
    N5413    N        0.88961    0.69027    0.63089    1.000
    N5414    N        0.92699    0.63605    0.66721    1.000
    Si5415   Si       0.91702    0.72437    0.74353    1.000
    Si5416   Si       0.88999    0.65703    0.65826    1.000
    Si5417   Si       0.88722    0.65156    0.73751    1.000
    Si5418   Si       0.91475    0.58624    0.76619    1.000
    Si5419   Si       0.90486    0.60806    0.83176    1.000
    N5420    N        0.88621    0.59790    0.79622    1.000
    Si5421   Si       0.87939    0.51936    0.76622    1.000
    N5422    N        0.88883    0.62415    0.87068    1.000
    N5423    N        0.92764    0.51282    0.86045    1.000
    N5424    N        0.90058    0.55009    0.74645    1.000
    Si5425   Si       0.90093    0.74848    0.81351    1.000
    N5426    N        0.91331    0.68176    0.75678    1.000
    N5427    N        0.92250    0.64737    0.82467    1.000
    N5428    N        0.90201    0.75661    0.77041    1.000
    Si5429   Si       0.90728    0.52066    0.89915    1.000
    N5430    N        0.90960    0.56446    0.90463    1.000
    Si5431   Si       0.89518    0.60786    0.97312    1.000
    N5432    N        0.92196    0.57231    0.97682    1.000
    Si5433   Si       0.87695    0.59439    0.90130    1.000
    N5434    N        0.90222    0.75328    0.90439    1.000
    N5435    N        0.90903    0.68153    0.88728    1.000
    N5436    N        0.90663    0.70287    0.95897    1.000
    Si5437   Si       0.89709    0.71333    0.91557    1.000
    N5438    N        0.92680    0.63804    0.98056    1.000
    N5439    N        0.90829    0.80567    0.07304    1.000
    Si5440   Si       0.90791    0.77400    0.04085    1.000
    Si5441   Si       0.88345    0.79818    0.10875    1.000
    N5442    N        0.92082    0.87519    0.06018    1.000
    Si5443   Si       0.87918    0.88601    0.06216    1.000
    N5444    N        0.87799    0.92888    0.05658    1.000
    N5445    N        0.90545    0.76479    0.12928    1.000
    Si5446   Si       0.90290    0.85804    0.14521    1.000
    N5447    N        0.89509    0.79243    0.19527    1.000
    N5448    N        0.91312    0.86396    0.18773    1.000
    Si5449   Si       0.90530    0.83024    0.21380    1.000
    N5450    N        0.87242    0.82714    0.13945    1.000
    N5451    N        0.89630    0.96305    0.24616    1.000
    Si5452   Si       0.90219    0.97136    0.20323    1.000
    N5453    N        0.88925    0.97044    0.13176    1.000
    Si5454   Si       0.91002    0.93364    0.14325    1.000
    Si5455   Si       0.92607    0.89888    0.21166    1.000
    N5456    N        0.88797    0.89728    0.13374    1.000
    N5457    N        0.92057    0.00593    0.18480    1.000
    N5458    N        0.91523    0.93231    0.18682    1.000
    N5459    N        0.91447    0.85077    0.35891    1.000
    Si5460   Si       0.92051    0.86183    0.27775    1.000
    Si5461   Si       0.90989    0.76536    0.30239    1.000
    N5462    N        0.87804    0.85508    0.29896    1.000
    Si5463   Si       0.87534    0.84565    0.34409    1.000
    N5464    N        0.88869    0.99572    0.31846    1.000
    Si5465   Si       0.91094    0.93523    0.27414    1.000
    N5466    N        0.88210    0.92730    0.30449    1.000
    Si5467   Si       0.92657    0.00684    0.33947    1.000
    N5468    N        0.91382    0.89780    0.25352    1.000
    N5469    N        0.89728    0.79895    0.46854    1.000
    N5470    N        0.88989    0.85520    0.42211    1.000
    Si5471   Si       0.91738    0.87344    0.39558    1.000
    Si5472   Si       0.91754    0.82761    0.44327    1.000
    Si5473   Si       0.91688    0.76846    0.49425    1.000
    Si5474   Si       0.88130    0.98654    0.39164    1.000
    Si5475   Si       0.89044    0.97951    0.47156    1.000
    N5476    N        0.93081    0.98896    0.45681    1.000
    N5477    N        0.90877    0.91502    0.39299    1.000
    N5478    N        0.92214    0.98248    0.37557    1.000
    N5479    N        0.87053    0.94231    0.48193    1.000
    Si5480   Si       0.88484    0.80471    0.55122    1.000
    N5481    N        0.88931    0.80965    0.59366    1.000
    N5482    N        0.92239    0.82805    0.54386    1.000
    Si5483   Si       0.92056    0.84180    0.58899    1.000
    N5484    N        0.89331    0.76698    0.53125    1.000
    Si5485   Si       0.92710    0.86186    0.51456    1.000
    N5486    N        0.88651    0.87968    0.51523    1.000
    Si5487   Si       0.88689    0.77312    0.61819    1.000
    N5488    N        0.92908    0.88358    0.59655    1.000
    N5489    N        0.88067    0.94653    0.54998    1.000
    N5490    N        0.91354    0.95567    0.60631    1.000
    Si5491   Si       0.91704    0.96308    0.56345    1.000
    N5492    N        0.92270    0.00474    0.54910    1.000
    Si5493   Si       0.89939    0.77343    0.69352    1.000
    N5494    N        0.89404    0.80915    0.71897    1.000
    Si5495   Si       0.90722    0.84523    0.69818    1.000
    N5496    N        0.87812    0.78304    0.65866    1.000
    N5497    N        0.92117    0.86751    0.73242    1.000
    N5498    N        0.87203    0.85422    0.67166    1.000
    Si5499   Si       0.87664    0.94586    0.67880    1.000
    N5500    N        0.90058    0.00462    0.74254    1.000
    Si5501   Si       0.92136    0.98844    0.63404    1.000
    N5502    N        0.87609    0.92263    0.71572    1.000
    Si5503   Si       0.91205    0.91560    0.62412    1.000
    N5504    N        0.87377    0.91637    0.64689    1.000
    N5505    N        0.91226    0.97075    0.67337    1.000
    Si5506   Si       0.91092    0.90816    0.73823    1.000
    Si5507   Si       0.92550    0.99702    0.70489    1.000
    Si5508   Si       0.89153    0.79787    0.76113    1.000
    N5509    N        0.91753    0.86693    0.83712    1.000
    Si5510   Si       0.90854    0.82411    0.83413    1.000
    N5511    N        0.91640    0.82425    0.78859    1.000
    N5512    N        0.92473    0.77742    0.83584    1.000
    Si5513   Si       0.92892    0.86441    0.77772    1.000
    N5514    N        0.89942    0.89943    0.78078    1.000
    Si5515   Si       0.88874    0.89782    0.82264    1.000
    N5516    N        0.89284    0.93672    0.84601    1.000
    Si5517   Si       0.91949    0.96699    0.83021    1.000
    N5518    N        0.88934    0.99554    0.81329    1.000
    Si5519   Si       0.91873    0.00013    0.77994    1.000
    N5520    N        0.91370    0.81127    0.94783    1.000
    Si5521   Si       0.88385    0.78404    0.93065    1.000
    N5522    N        0.90864    0.81872    0.88238    1.000
    N5523    N        0.91502    0.88035    0.91825    1.000
    Si5524   Si       0.93047    0.77678    0.88067    1.000
    Si5525   Si       0.92817    0.83946    0.91579    1.000
    Si5526   Si       0.87745    0.89274    0.98928    1.000
    N5527    N        0.92029    0.89541    0.99172    1.000
    N5528    N        0.91007    0.94457    0.95228    1.000
    Si5529   Si       0.87337    0.89050    0.91432    1.000
    Si5530   Si       0.86911    0.94952    0.94937    1.000
    N5531    N        0.96529    0.11627    0.05490    1.000
    Si5532   Si       0.95588    0.09785    0.09296    1.000
    N5533    N        0.94805    0.05842    0.01751    1.000
    Si5534   Si       0.96323    0.02315    0.11366    1.000
    N5535    N        0.98177    0.06028    0.10204    1.000
    Si5536   Si       0.94889    0.10118    0.01548    1.000
    Si5537   Si       0.98562    0.04131    0.01203    1.000
    N5538    N        0.95541    0.16948    0.01291    1.000
    N5539    N        0.96702    0.18862    0.07765    1.000
    Si5540   Si       0.94807    0.15807    0.05429    1.000
    Si5541   Si       0.94423    0.22395    0.06944    1.000
    N5542    N        0.98123    0.24795    0.06961    1.000
    N5543    N        0.97160    0.12108    0.19758    1.000
    N5544    N        0.96269    0.11550    0.13181    1.000
    N5545    N        0.97814    0.02129    0.15445    1.000
    Si5546   Si       0.94678    0.04013    0.18028    1.000
    N5547    N        0.96843    0.05190    0.21758    1.000
    Si5548   Si       0.95516    0.09124    0.22619    1.000
    Si5549   Si       0.93955    0.11480    0.16798    1.000
    N5550    N        0.97420    0.23894    0.17384    1.000
    Si5551   Si       0.93989    0.17780    0.17262    1.000
    N5552    N        0.97834    0.17640    0.15675    1.000
    N5553    N        0.96871    0.08256    0.31357    1.000
    Si5554   Si       0.96160    0.12189    0.28805    1.000
    Si5555   Si       0.98010    0.08414    0.35538    1.000
    N5556    N        0.98693    0.10528    0.25624    1.000
    N5557    N        0.94843    0.19649    0.34336    1.000
    N5558    N        0.94420    0.22516    0.27410    1.000
    Si5559   Si       0.95143    0.23904    0.35989    1.000
    N5560    N        0.93806    0.15984    0.28121    1.000
    Si5561   Si       0.95594    0.18854    0.25212    1.000
    Si5562   Si       0.98647    0.24131    0.28173    1.000
    Si5563   Si       0.94186    0.09613    0.42134    1.000
    N5564    N        0.94796    0.10170    0.37907    1.000
    N5565    N        0.97534    0.11891    0.43722    1.000
    Si5566   Si       0.95180    0.02629    0.45360    1.000
    N5567    N        0.96170    0.03766    0.49436    1.000
    N5568    N        0.93280    0.05445    0.42687    1.000
    N5569    N        0.93790    0.16591    0.47994    1.000
    N5570    N        0.97282    0.22414    0.47763    1.000
    Si5571   Si       0.94993    0.15354    0.44121    1.000
    N5572    N        0.95870    0.17917    0.40781    1.000
    Si5573   Si       0.93156    0.20925    0.48491    1.000
    N5574    N        0.98993    0.23931    0.37962    1.000
    N5575    N        0.95846    0.07152    0.55585    1.000
    Si5576   Si       0.95585    0.03126    0.53803    1.000
    N5577    N        0.98689    0.11892    0.60356    1.000
    Si5578   Si       0.95173    0.22561    0.61437    1.000
    N5579    N        0.95454    0.18306    0.59923    1.000
    Si5580   Si       0.94691    0.16250    0.52354    1.000
    N5581    N        0.98748    0.15359    0.54056    1.000
    Si5582   Si       0.98841    0.15844    0.58522    1.000
    N5583    N        0.95679    0.09532    0.66587    1.000
    N5584    N        0.94847    0.06955    0.73454    1.000
    N5585    N        0.92790    0.03297    0.68127    1.000
    Si5586   Si       0.95777    0.06086    0.69346    1.000
    N5587    N        0.95293    0.20453    0.70801    1.000
    Si5588   Si       0.94919    0.24242    0.73265    1.000
    N5589    N        0.95083    0.06269    0.85508    1.000
    Si5590   Si       0.96138    0.06327    0.77439    1.000
    Si5591   Si       0.95793    0.02304    0.83804    1.000
    N5592    N        0.94451    0.03016    0.79661    1.000
    N5593    N        0.94366    0.10249    0.78464    1.000
    N5594    N        0.95975    0.13039    0.84051    1.000
    Si5595   Si       0.96793    0.13600    0.79894    1.000
    N5596    N        0.95682    0.17504    0.78911    1.000
    Si5597   Si       0.97357    0.22633    0.86298    1.000
    N5598    N        0.93429    0.21581    0.84050    1.000
    Si5599   Si       0.98538    0.07831    0.87643    1.000
    N5600    N        0.97861    0.11504    0.90116    1.000
    Si5601   Si       0.97038    0.03871    0.93823    1.000
    Si5602   Si       0.93727    0.10767    0.92047    1.000
    N5603    N        0.93349    0.06583    0.93809    1.000
    Si5604   Si       0.97089    0.15526    0.87124    1.000
    N5605    N        0.96171    0.24567    0.90156    1.000
    N5606    N        0.94069    0.17559    0.89619    1.000
    Si5607   Si       0.95126    0.17302    0.93809    1.000
    N5608    N        0.93697    0.20779    0.95882    1.000
    N5609    N        0.93119    0.13702    0.95316    1.000
    N5610    N        0.96525    0.35441    0.00928    1.000
    N5611    N        0.94278    0.33478    0.11730    1.000
    Si5612   Si       0.94789    0.38056    0.11803    1.000
    Si5613   Si       0.98487    0.32276    0.11092    1.000
    N5614    N        0.99124    0.31851    0.06815    1.000
    Si5615   Si       0.95224    0.49885    0.03878    1.000
    N5616    N        0.97515    0.39697    0.08831    1.000
    Si5617   Si       0.96671    0.41823    0.05375    1.000
    N5618    N        0.97724    0.46044    0.05691    1.000
    Si5619   Si       0.98161    0.48210    0.09488    1.000
    N5620    N        0.94392    0.50410    0.08689    1.000
    Si5621   Si       0.96153    0.33906    0.21729    1.000
    Si5622   Si       0.97289    0.26362    0.20999    1.000
    N5623    N        0.97371    0.37720    0.23237    1.000
    N5624    N        0.98752    0.30466    0.20778    1.000
    N5625    N        0.92962    0.32793    0.24512    1.000
    N5626    N        0.93016    0.49109    0.17210    1.000
    N5627    N        0.96982    0.46659    0.13404    1.000
    N5628    N        0.99114    0.45187    0.19403    1.000
    Si5629   Si       0.98710    0.43193    0.15367    1.000
    Si5630   Si       0.97464    0.48746    0.17517    1.000
    N5631    N        0.95652    0.40218    0.15463    1.000
    N5632    N        0.97087    0.33012    0.30411    1.000
    Si5633   Si       0.98062    0.29463    0.32640    1.000
    N5634    N        0.94585    0.27099    0.33144    1.000
    Si5635   Si       0.97653    0.37082    0.32120    1.000
    Si5636   Si       0.93321    0.33669    0.28583    1.000
    N5637    N        0.93604    0.38226    0.35008    1.000
    N5638    N        0.94040    0.38391    0.28966    1.000
    N5639    N        0.97836    0.43804    0.25964    1.000
    N5640    N        0.97758    0.47080    0.32385    1.000
    Si5641   Si       0.95584    0.46624    0.28515    1.000
    Si5642   Si       0.94651    0.40787    0.25335    1.000
    Si5643   Si       0.96156    0.50217    0.34879    1.000
    N5644    N        0.96128    0.50726    0.26876    1.000
    N5645    N        0.95109    0.34691    0.48421    1.000
    Si5646   Si       0.97825    0.35799    0.45172    1.000
    Si5647   Si       0.94343    0.30311    0.48213    1.000
    N5648    N        0.98652    0.28906    0.47395    1.000
    N5649    N        0.97934    0.43670    0.46169    1.000
    N5650    N        0.94463    0.49375    0.38738    1.000
    N5651    N        0.95538    0.38660    0.42688    1.000
    Si5652   Si       0.93670    0.45180    0.38360    1.000
    Si5653   Si       0.94096    0.42185    0.44745    1.000
    N5654    N        0.95584    0.49923    0.45464    1.000
    Si5655   Si       0.96526    0.39106    0.38448    1.000
    N5656    N        0.97739    0.43429    0.38567    1.000
    N5657    N        0.98178    0.36641    0.57599    1.000
    Si5658   Si       0.94177    0.27878    0.55594    1.000
    N5659    N        0.94413    0.31083    0.58357    1.000
    Si5660   Si       0.93904    0.35531    0.57715    1.000
    N5661    N        0.98153    0.26347    0.54284    1.000
    Si5662   Si       0.94024    0.37999    0.50686    1.000
    N5663    N        0.97332    0.40509    0.52238    1.000
    Si5664   Si       0.94230    0.44796    0.59686    1.000
    N5665    N        0.98228    0.43728    0.58923    1.000
    N5666    N        0.93532    0.48193    0.56937    1.000
    Si5667   Si       0.94068    0.31877    0.62695    1.000
    Si5668   Si       0.94580    0.31296    0.71876    1.000
    N5669    N        0.98249    0.32271    0.63400    1.000
    N5670    N        0.98316    0.32826    0.70467    1.000
    N5671    N        0.93529    0.27262    0.70454    1.000
    Si5672   Si       0.99294    0.36491    0.72778    1.000
    N5673    N        0.96607    0.39310    0.70482    1.000
    Si5674   Si       0.97041    0.47998    0.65868    1.000
    N5675    N        0.93474    0.46484    0.63618    1.000
    Si5676   Si       0.97865    0.43530    0.71517    1.000
    N5677    N        0.95283    0.46047    0.69362    1.000
    Si5678   Si       0.95739    0.30046    0.84342    1.000
    N5679    N        0.97406    0.33339    0.82095    1.000
    N5680    N        0.97222    0.37176    0.76562    1.000
    Si5681   Si       0.94950    0.34178    0.78647    1.000
    N5682    N        0.94498    0.30733    0.76195    1.000
    N5683    N        0.98503    0.26652    0.84330    1.000
    Si5684   Si       0.96939    0.41027    0.78662    1.000
    N5685    N        0.94872    0.48928    0.80029    1.000
    Si5686   Si       0.98028    0.48444    0.76969    1.000
    N5687    N        0.97880    0.44215    0.75911    1.000
    Si5688   Si       0.96308    0.50019    0.83975    1.000
    N5689    N        0.98394    0.46621    0.85414    1.000
    N5690    N        0.97924    0.29229    0.95230    1.000
    N5691    N        0.95370    0.31058    0.88570    1.000
    Si5692   Si       0.98214    0.28630    0.90919    1.000
    Si5693   Si       0.93812    0.30077    0.96633    1.000
    Si5694   Si       0.93724    0.34747    0.90328    1.000
    N5695    N        0.95935    0.38479    0.90944    1.000
    N5696    N        0.95967    0.46231    0.92727    1.000
    Si5697   Si       0.94483    0.42221    0.92911    1.000
    Si5698   Si       0.97053    0.48801    0.96324    1.000
    Si5699   Si       0.98110    0.39079    0.99029    1.000
    N5700    N        0.94759    0.41127    0.97135    1.000
    N5701    N        0.94109    0.49043    0.99716    1.000
    N5702    N        0.95865    0.57334    0.08712    1.000
    N5703    N        0.97250    0.60004    0.02246    1.000
    Si5704   Si       0.97640    0.56048    0.04725    1.000
    N5705    N        0.93152    0.54245    0.03961    1.000
    Si5706   Si       0.93776    0.65906    0.09868    1.000
    Si5707   Si       0.94918    0.70853    0.04750    1.000
    N5708    N        0.95472    0.66537    0.05687    1.000
    N5709    N        0.94250    0.70241    0.11009    1.000
    Si5710   Si       0.98365    0.72113    0.10871    1.000
    N5711    N        0.95332    0.70865    0.00353    1.000
    N5712    N        0.98509    0.73104    0.06496    1.000
    Si5713   Si       0.98403    0.63790    0.03850    1.000
    Si5714   Si       0.97169    0.59442    0.12174    1.000
    N5715    N        0.95366    0.57331    0.15615    1.000
    N5716    N        0.95970    0.56749    0.22885    1.000
    Si5717   Si       0.97874    0.56545    0.18966    1.000
    Si5718   Si       0.98243    0.53164    0.24176    1.000
    N5719    N        0.96548    0.63676    0.12354    1.000
    N5720    N        0.96758    0.72882    0.21818    1.000
    N5721    N        0.98286    0.74570    0.14383    1.000
    N5722    N        0.97349    0.68361    0.17761    1.000
    N5723    N        0.97330    0.64305    0.22813    1.000
    Si5724   Si       0.95813    0.72455    0.17462    1.000
    Si5725   Si       0.96215    0.68437    0.22408    1.000
    N5726    N        0.97150    0.57109    0.30102    1.000
    Si5727   Si       0.94647    0.60446    0.31378    1.000
    Si5728   Si       0.94414    0.53954    0.29303    1.000
    N5729    N        0.93060    0.62437    0.27758    1.000
    N5730    N        0.93333    0.69480    0.32941    1.000
    N5731    N        0.97695    0.63828    0.31805    1.000
    Si5732   Si       0.97314    0.64180    0.27392    1.000
    N5733    N        0.97059    0.68744    0.27083    1.000
    Si5734   Si       0.97197    0.67533    0.34002    1.000
    N5735    N        0.96010    0.74807    0.29356    1.000
    Si5736   Si       0.93692    0.71108    0.28804    1.000
    Si5737   Si       0.93276    0.51693    0.42184    1.000
    Si5738   Si       0.94822    0.58768    0.45019    1.000
    N5739    N        0.96638    0.56082    0.48153    1.000
    N5740    N        0.94770    0.55866    0.41676    1.000
    N5741    N        0.97503    0.61949    0.43686    1.000
    Si5742   Si       0.96397    0.62363    0.39493    1.000
    Si5743   Si       0.98745    0.55780    0.39606    1.000
    Si5744   Si       0.95542    0.51741    0.49427    1.000
    N5745    N        0.97020    0.66531    0.38324    1.000
    N5746    N        0.98172    0.68900    0.44639    1.000
    Si5747   Si       0.97755    0.70162    0.40627    1.000
    Si5748   Si       0.96975    0.72235    0.47375    1.000
    N5749    N        0.94431    0.72864    0.39426    1.000
    N5750    N        0.94679    0.61145    0.58921    1.000
    N5751    N        0.97230    0.52840    0.53776    1.000
    Si5752   Si       0.96488    0.57102    0.52307    1.000
    Si5753   Si       0.95904    0.51679    0.57723    1.000
    N5754    N        0.93925    0.54628    0.60468    1.000
    Si5755   Si       0.98473    0.60761    0.61130    1.000
    Si5756   Si       0.95313    0.62937    0.54951    1.000
    N5757    N        0.98717    0.60705    0.53429    1.000
    N5758    N        0.93281    0.65076    0.51610    1.000
    N5759    N        0.96806    0.71741    0.51844    1.000
    N5760    N        0.96297    0.66966    0.56438    1.000
    Si5761   Si       0.93736    0.69242    0.53523    1.000
    Si5762   Si       0.94853    0.55286    0.64736    1.000
    N5763    N        0.97283    0.58267    0.71517    1.000
    N5764    N        0.97366    0.58987    0.64871    1.000
    N5765    N        0.97371    0.52214    0.66603    1.000
    Si5766   Si       0.96051    0.61248    0.68362    1.000
    Si5767   Si       0.98777    0.54261    0.70337    1.000
    N5768    N        0.98677    0.51332    0.73803    1.000
    N5769    N        0.95663    0.70720    0.69245    1.000
    Si5770   Si       0.97224    0.74332    0.71056    1.000
    N5771    N        0.96044    0.68947    0.62668    1.000
    Si5772   Si       0.98010    0.68452    0.66573    1.000
    N5773    N        0.95578    0.58058    0.77974    1.000
    Si5774   Si       0.97330    0.57720    0.82003    1.000
    N5775    N        0.93830    0.58325    0.84453    1.000
    Si5776   Si       0.99108    0.58683    0.75466    1.000
    N5777    N        0.97648    0.67772    0.78639    1.000
    Si5778   Si       0.97019    0.72208    0.79112    1.000
    N5779    N        0.97462    0.67366    0.85915    1.000
    N5780    N        0.96012    0.73321    0.75121    1.000
    Si5781   Si       0.93717    0.65322    0.86625    1.000
    Si5782   Si       0.93335    0.67369    0.79489    1.000
    N5783    N        0.93005    0.71397    0.81296    1.000
    N5784    N        0.98160    0.55804    0.90016    1.000
    Si5785   Si       0.94592    0.57930    0.88634    1.000
    Si5786   Si       0.95335    0.60264    0.98489    1.000
    N5787    N        0.97917    0.60282    0.95090    1.000
    N5788    N        0.95340    0.62310    0.89331    1.000
    N5789    N        0.98850    0.52705    0.96218    1.000
    Si5790   Si       0.98011    0.63674    0.92380    1.000
    Si5791   Si       0.93797    0.67966    0.97537    1.000
    Si5792   Si       0.97219    0.74460    0.98960    1.000
    N5793    N        0.96747    0.67412    0.94311    1.000
    N5794    N        0.97501    0.82789    0.06135    1.000
    Si5795   Si       0.93486    0.83891    0.07887    1.000
    N5796    N        0.93769    0.77548    0.00874    1.000
    N5797    N        0.98097    0.88110    0.01724    1.000
    N5798    N        0.93976    0.84465    0.12243    1.000
    Si5799   Si       0.96431    0.96947    0.02013    1.000
    Si5800   Si       0.96967    0.94077    0.09117    1.000
    N5801    N        0.95672    0.93625    0.04826    1.000
    N5802    N        0.97798    0.98565    0.09624    1.000
    Si5803   Si       0.94297    0.89937    0.03020    1.000
    N5804    N        0.93263    0.99333    0.00471    1.000
    N5805    N        0.97121    0.82173    0.18785    1.000
    Si5806   Si       0.97589    0.83986    0.14870    1.000
    Si5807   Si       0.97365    0.82794    0.22967    1.000
    N5808    N        0.93275    0.83563    0.24556    1.000
    N5809    N        0.98415    0.78911    0.24686    1.000
    N5810    N        0.95056    0.92509    0.12694    1.000
    N5811    N        0.97354    0.98557    0.24181    1.000
    N5812    N        0.97000    0.90666    0.20892    1.000
    Si5813   Si       0.98190    0.94852    0.22102    1.000
    Si5814   Si       0.97534    0.91604    0.16395    1.000
    N5815    N        0.95319    0.86983    0.30643    1.000
    Si5816   Si       0.94876    0.83747    0.33416    1.000
    N5817    N        0.97869    0.82224    0.36090    1.000
    Si5818   Si       0.97454    0.78861    0.29113    1.000
    N5819    N        0.93635    0.80412    0.30801    1.000
    Si5820   Si       0.96693    0.91091    0.31362    1.000
    N5821    N        0.96234    0.93129    0.35240    1.000
    N5822    N        0.95132    0.94193    0.28749    1.000
    Si5823   Si       0.97635    0.97883    0.28482    1.000
    N5824    N        0.96546    0.00431    0.31911    1.000
    N5825    N        0.95321    0.86282    0.41514    1.000
    Si5826   Si       0.97584    0.82616    0.40511    1.000
    N5827    N        0.94264    0.79906    0.41858    1.000
    N5828    N        0.93813    0.85248    0.47403    1.000
    Si5829   Si       0.96476    0.87896    0.45483    1.000
    N5830    N        0.98415    0.96921    0.49319    1.000
    Si5831   Si       0.94033    0.94414    0.38586    1.000
    N5832    N        0.95349    0.91832    0.47123    1.000
    Si5833   Si       0.96148    0.95864    0.45771    1.000
    N5834    N        0.97269    0.94735    0.41622    1.000
    Si5835   Si       0.95709    0.80094    0.54976    1.000
    N5836    N        0.95589    0.81786    0.59667    1.000
    Si5837   Si       0.95986    0.77496    0.60873    1.000
    N5838    N        0.95659    0.78348    0.50835    1.000
    N5839    N        0.96979    0.76337    0.56934    1.000
    N5840    N        0.95852    0.88557    0.52962    1.000
    Si5841   Si       0.96969    0.92758    0.51294    1.000
    N5842    N        0.95173    0.94239    0.54968    1.000
    Si5843   Si       0.96263    0.90637    0.57434    1.000
    N5844    N        0.96204    0.99689    0.61939    1.000
    N5845    N        0.98589    0.93219    0.60729    1.000
    Si5846   Si       0.96534    0.86866    0.65974    1.000
    N5847    N        0.93779    0.83791    0.66876    1.000
    Si5848   Si       0.96695    0.80329    0.67774    1.000
    N5849    N        0.94316    0.77293    0.69619    1.000
    N5850    N        0.98487    0.77901    0.64329    1.000
    N5851    N        0.98373    0.82389    0.71199    1.000
    N5852    N        0.94704    0.92845    0.72798    1.000
    Si5853   Si       0.96830    0.92481    0.69004    1.000
    N5854    N        0.96270    0.99074    0.72845    1.000
    N5855    N        0.94144    0.90699    0.65686    1.000
    Si5856   Si       0.99059    0.96653    0.63472    1.000
    N5857    N        0.99004    0.88676    0.69105    1.000
    N5858    N        0.97115    0.82302    0.84007    1.000
    Si5859   Si       0.96306    0.86790    0.83720    1.000
    Si5860   Si       0.96777    0.77889    0.83287    1.000
    N5861    N        0.96627    0.87955    0.79602    1.000
    N5862    N        0.93931    0.96361    0.79086    1.000
    N5863    N        0.94510    0.98623    0.85930    1.000
    Si5864   Si       0.96595    0.95708    0.75522    1.000
    N5865    N        0.97257    0.77383    0.87990    1.000
    Si5866   Si       0.94542    0.79696    0.97242    1.000
    N5867    N        0.97132    0.83344    0.91174    1.000
    N5868    N        0.97611    0.82483    0.98326    1.000
    Si5869   Si       0.99241    0.81841    0.87698    1.000
    N5870    N        0.96427    0.76271    0.94950    1.000
    Si5871   Si       0.99109    0.84623    0.94859    1.000
    Si5872   Si       0.98725    0.90227    0.90619    1.000
    Si5873   Si       0.94026    0.97242    0.96486    1.000
    N5874    N        0.95807    0.93256    0.90421    1.000
    Si5875   Si       0.93418    0.90874    0.95121    1.000
    Si5876   Si       0.96420    0.97501    0.89702    1.000
    N5877    N        0.96897    0.94412    0.98336    1.000
    N5878    N        0.97732    0.88748    0.94855    1.000
    N5879    N        0.95467    0.99827    0.93268    1.000
