# CIF file generated by openbabel 3.1.1, see https://openbabel.org
data_I
_chemical_name_common '3.01-57.aims'
_cell_length_a 39.9413
_cell_length_b 39.9413
_cell_length_c 39.9413
_cell_angle_alpha 90
_cell_angle_beta 90
_cell_angle_gamma 90
loop_
    _atom_site_label
    _atom_site_type_symbol
    _atom_site_fract_x
    _atom_site_fract_y
    _atom_site_fract_z
    _atom_site_occupancy
    N0       N        0.08944    0.03311    0.02018    1.000
    N1       N        0.05205    0.05533    0.08398    1.000
    Si2      Si       0.02962    0.01817    0.08348    1.000
    Si3      Si       0.09301    0.05276    0.09794    1.000
    N4       N        0.99233    0.03210    0.10060    1.000
    Si5      Si       0.06079    0.06299    0.00101    1.000
    N6       N        0.03108    0.00969    0.03892    1.000
    N7       N        0.11056    0.01298    0.10323    1.000
    Si8      Si       0.19707    0.01669    0.03280    1.000
    N9       N        0.22207    0.03329    0.06648    1.000
    Si10     Si       0.12562    0.05030    0.03472    1.000
    N11      N        0.15465    0.01926    0.04259    1.000
    Si12     Si       0.06243    0.02961    0.18685    1.000
    N13      N        0.09282    0.01459    0.21456    1.000
    N14      N        0.02925    0.00743    0.20970    1.000
    Si15     Si       0.16009    0.01908    0.20792    1.000
    N16      N        0.19966    0.03829    0.19661    1.000
    N17      N        0.22770    0.03009    0.14023    1.000
    N18      N        0.14603    0.01125    0.16779    1.000
    N19      N        0.15004    0.05290    0.23511    1.000
    Si20     Si       0.18108    0.03121    0.14729    1.000
    Si21     Si       0.19310    0.06596    0.23040    1.000
    N22      N        0.04570    0.03351    0.34610    1.000
    Si23     Si       0.08520    0.01676    0.35165    1.000
    N24      N        0.11292    0.04521    0.33126    1.000
    Si25     Si       0.00825    0.01381    0.35485    1.000
    N26      N        0.99015    0.06368    0.29816    1.000
    Si27     Si       0.11293    0.03727    0.24731    1.000
    Si28     Si       0.15602    0.04111    0.33947    1.000
    Si29     Si       0.21704    0.03190    0.29971    1.000
    N30      N        0.17642    0.01894    0.30885    1.000
    N31      N        0.23477    0.04429    0.33810    1.000
    N32      N        0.21934    0.06151    0.26706    1.000
    N33      N        0.05869    0.04405    0.45031    1.000
    Si34     Si       0.05573    0.03612    0.40597    1.000
    N35      N        0.01712    0.01435    0.39858    1.000
    N36      N        0.09008    0.01007    0.39530    1.000
    N37      N        0.00376    0.01039    0.47064    1.000
    Si38     Si       0.04854    0.00794    0.47293    1.000
    Si39     Si       0.19527    0.02580    0.40755    1.000
    Si40     Si       0.19685    0.03587    0.47258    1.000
    N41      N        0.23620    0.02641    0.45725    1.000
    Si42     Si       0.13315    0.01740    0.41305    1.000
    N43      N        0.17184    0.01528    0.44320    1.000
    N44      N        0.16118    0.02093    0.37879    1.000
    N45      N        0.13408    0.06467    0.41947    1.000
    N46      N        0.20373    0.06780    0.40090    1.000
    N47      N        0.06851    0.04013    0.57152    1.000
    Si48     Si       0.05956    0.03960    0.53059    1.000
    N49      N        0.01864    0.04719    0.52369    1.000
    Si50     Si       0.03950    0.05894    0.61255    1.000
    N51      N        0.00224    0.06379    0.58779    1.000
    Si52     Si       0.09771    0.06816    0.59170    1.000
    N53      N        0.20040    0.02710    0.51477    1.000
    N54      N        0.13495    0.03893    0.51538    1.000
    N55      N        0.16554    0.03037    0.57711    1.000
    Si56     Si       0.20346    0.03098    0.60445    1.000
    Si57     Si       0.16384    0.01503    0.53621    1.000
    N58      N        0.23359    0.02450    0.57379    1.000
    N59      N        0.04947    0.01674    0.62711    1.000
    N60      N        0.09360    0.05171    0.68702    1.000
    Si61     Si       0.07694    0.01966    0.66426    1.000
    Si62     Si       0.01365    0.02268    0.65426    1.000
    Si63     Si       0.03363    0.02728    0.73432    1.000
    Si64     Si       0.09763    0.05782    0.73001    1.000
    N65      N        0.02345    0.06578    0.65380    1.000
    N66      N        0.03454    0.01238    0.69284    1.000
    Si67     Si       0.19034    0.02999    0.67226    1.000
    N68      N        0.23039    0.04312    0.65468    1.000
    N69      N        0.16372    0.06440    0.67433    1.000
    N70      N        0.11637    0.04577    0.62380    1.000
    Si71     Si       0.12412    0.06752    0.66040    1.000
    N72      N        0.13452    0.03690    0.74526    1.000
    Si73     Si       0.01825    0.03304    0.82504    1.000
    Si74     Si       0.08699    0.02827    0.84978    1.000
    N75      N        0.05336    0.05312    0.84124    1.000
    N76      N        0.99499    0.02324    0.86095    1.000
    Si77     Si       0.10799    0.01507    0.77345    1.000
    N78      N        0.99598    0.06417    0.79996    1.000
    N79      N        0.07259    0.02876    0.75129    1.000
    N80      N        0.11164    0.02844    0.81288    1.000
    Si81     Si       0.21649    0.04047    0.85928    1.000
    N82      N        0.19604    0.06173    0.76085    1.000
    Si83     Si       0.22964    0.06438    0.78946    1.000
    Si84     Si       0.17719    0.02576    0.74495    1.000
    Si85     Si       0.99135    0.03966    0.90084    1.000
    N86      N        0.02639    0.04970    0.97616    1.000
    N87      N        0.11040    0.04631    0.88404    1.000
    Si88     Si       0.01863    0.00921    0.96438    1.000
    N89      N        0.20814    0.03192    0.99229    1.000
    N90      N        0.17651    0.00949    0.93526    1.000
    Si91     Si       0.14706    0.02943    0.90447    1.000
    N92      N        0.14660    0.06319    0.93609    1.000
    N93      N        0.18008    0.05010    0.88148    1.000
    Si94     Si       0.18377    0.04619    0.95773    1.000
    Si95     Si       0.03124    0.08744    0.06521    1.000
    N96      N        0.04920    0.09750    0.02642    1.000
    N97      N        0.02997    0.12085    0.09128    1.000
    N98      N        0.99002    0.07807    0.05115    1.000
    N99      N        0.14535    0.07331    0.00504    1.000
    N100     N        0.12137    0.07395    0.07074    1.000
    Si101    Si       0.13935    0.11336    0.07610    1.000
    N102     N        0.18277    0.10961    0.08374    1.000
    Si103    Si       0.15521    0.11691    0.00958    1.000
    Si104    Si       0.21246    0.12011    0.05257    1.000
    Si105    Si       0.06776    0.09374    0.23628    1.000
    Si106    Si       0.08448    0.09683    0.17057    1.000
    N107     N        0.09514    0.06945    0.13826    1.000
    N108     N        0.06543    0.07216    0.20013    1.000
    Si109    Si       0.99051    0.09499    0.23032    1.000
    Si110    Si       0.13351    0.08936    0.13576    1.000
    Si111    Si       0.19640    0.10672    0.12609    1.000
    N112     N        0.19505    0.10523    0.21167    1.000
    N113     N        0.17191    0.07126    0.13719    1.000
    N114     N        0.12764    0.10206    0.17885    1.000
    N115     N        0.23758    0.10291    0.13996    1.000
    Si116    Si       0.23194    0.12637    0.21717    1.000
    N117     N        0.05325    0.09458    0.31724    1.000
    Si118    Si       0.01624    0.10062    0.29505    1.000
    Si119    Si       0.09307    0.07492    0.30721    1.000
    N120     N        0.02719    0.10109    0.25157    1.000
    Si121    Si       0.04153    0.08776    0.36009    1.000
    N122     N        0.99784    0.08429    0.36292    1.000
    N123     N        0.08890    0.06939    0.26405    1.000
    N124     N        0.11348    0.11217    0.31964    1.000
    N125     N        0.17581    0.07917    0.33800    1.000
    Si126    Si       0.21335    0.07711    0.36077    1.000
    Si127    Si       0.15603    0.11723    0.32473    1.000
    N128     N        0.23704    0.11249    0.36028    1.000
    N129     N        0.02256    0.10292    0.48110    1.000
    N130     N        0.08700    0.10961    0.45136    1.000
    N131     N        0.06892    0.07357    0.39131    1.000
    Si132    Si       0.05823    0.08161    0.47181    1.000
    Si133    Si       0.10145    0.09226    0.41231    1.000
    N134     N        0.18697    0.07850    0.46885    1.000
    Si135    Si       0.17244    0.08671    0.42781    1.000
    N136     N        0.06547    0.09243    0.60757    1.000
    Si137    Si       0.00327    0.08003    0.54898    1.000
    N138     N        0.02836    0.11649    0.55085    1.000
    N139     N        0.07756    0.07501    0.51010    1.000
    Si140    Si       0.12042    0.07943    0.52263    1.000
    N141     N        0.12642    0.08400    0.56550    1.000
    N142     N        0.18651    0.10281    0.54244    1.000
    Si143    Si       0.16702    0.07585    0.57103    1.000
    N144     N        0.19773    0.07467    0.60529    1.000
    N145     N        0.13345    0.11280    0.50253    1.000
    Si146    Si       0.17714    0.10926    0.49970    1.000
    N147     N        0.09698    0.09839    0.73799    1.000
    Si148    Si       0.01362    0.08583    0.68989    1.000
    N149     N        0.02452    0.06969    0.72976    1.000
    Si150    Si       0.17074    0.10911    0.67897    1.000
    Si151    Si       0.22797    0.08433    0.63545    1.000
    Si152    Si       0.11991    0.12343    0.71220    1.000
    N153     N        0.16069    0.11325    0.72502    1.000
    N154     N        0.12484    0.11094    0.67189    1.000
    N155     N        0.20764    0.11312    0.65783    1.000
    Si156    Si       0.05578    0.09482    0.83176    1.000
    N157     N        0.05179    0.09662    0.78872    1.000
    N158     N        0.09547    0.10785    0.84474    1.000
    Si159    Si       0.01364    0.08579    0.76886    1.000
    Si160    Si       0.07733    0.12368    0.76800    1.000
    N161     N        0.22061    0.07545    0.83094    1.000
    Si162    Si       0.17312    0.09862    0.76531    1.000
    N163     N        0.14431    0.09290    0.79669    1.000
    Si164    Si       0.22900    0.11305    0.85317    1.000
    N165     N        0.08211    0.07643    0.96506    1.000
    N166     N        0.07095    0.10078    0.90460    1.000
    Si167    Si       0.04601    0.08795    0.93986    1.000
    Si168    Si       0.10659    0.08977    0.88362    1.000
    N169     N        0.00296    0.08062    0.91625    1.000
    Si170    Si       0.12407    0.08210    0.96676    1.000
    N171     N        0.20794    0.11510    0.89205    1.000
    N172     N        0.14175    0.11130    0.89577    1.000
    N173     N        0.20749    0.07987    0.94296    1.000
    Si174    Si       0.22826    0.11424    0.92993    1.000
    Si175    Si       0.17694    0.08605    0.90787    1.000
    N176     N        0.06912    0.16054    0.01141    1.000
    N177     N        0.99545    0.13915    0.01841    1.000
    Si178    Si       0.03622    0.13182    0.00461    1.000
    N179     N        0.06653    0.17740    0.10924    1.000
    Si180    Si       0.10933    0.17249    0.02815    1.000
    N181     N        0.13304    0.13732    0.04106    1.000
    N182     N        0.23406    0.15910    0.05709    1.000
    N183     N        0.19616    0.12882    0.01357    1.000
    N184     N        0.20903    0.18186    0.11346    1.000
    Si185    Si       0.22520    0.15516    0.99669    1.000
    N186     N        0.12203    0.12487    0.11449    1.000
    Si187    Si       0.03998    0.14715    0.12248    1.000
    Si188    Si       0.07246    0.16142    0.19055    1.000
    Si189    Si       0.10478    0.16446    0.13164    1.000
    N190     N        0.06413    0.13243    0.15675    1.000
    N191     N        0.00446    0.16346    0.14280    1.000
    N192     N        0.07845    0.13340    0.22076    1.000
    N193     N        0.10801    0.17849    0.17147    1.000
    N194     N        0.17592    0.13786    0.15169    1.000
    Si195    Si       0.17279    0.17793    0.13332    1.000
    N196     N        0.16028    0.16183    0.21578    1.000
    Si197    Si       0.16135    0.12593    0.19016    1.000
    N198     N        0.06154    0.16635    0.31392    1.000
    Si199    Si       0.02051    0.17308    0.32553    1.000
    N200     N        0.99892    0.13878    0.30487    1.000
    Si201    Si       0.07689    0.13067    0.33077    1.000
    N202     N        0.00104    0.17941    0.36506    1.000
    N203     N        0.05154    0.13015    0.36766    1.000
    N204     N        0.22213    0.15098    0.25146    1.000
    N205     N        0.17442    0.14344    0.35513    1.000
    Si206    Si       0.21622    0.15026    0.35700    1.000
    Si207    Si       0.18046    0.15856    0.25413    1.000
    N208     N        0.16848    0.13936    0.28893    1.000
    N209     N        0.22875    0.16783    0.31810    1.000
    Si210    Si       0.16585    0.18176    0.31228    1.000
    N211     N        0.04161    0.16513    0.43015    1.000
    Si212    Si       0.07193    0.15323    0.39846    1.000
    Si213    Si       0.10528    0.13824    0.47890    1.000
    Si214    Si       0.04344    0.17787    0.47262    1.000
    N215     N        0.11171    0.13288    0.39564    1.000
    N216     N        0.23755    0.17580    0.38585    1.000
    N217     N        0.13284    0.17221    0.47123    1.000
    Si218    Si       0.17189    0.16363    0.45452    1.000
    N219     N        0.19331    0.14699    0.48754    1.000
    N220     N        0.16799    0.13010    0.42671    1.000
    Si221    Si       0.15122    0.14970    0.39256    1.000
    N222     N        0.07653    0.15694    0.57863    1.000
    Si223    Si       0.09307    0.17799    0.61473    1.000
    N224     N        0.07138    0.15646    0.50298    1.000
    Si225    Si       0.08075    0.17826    0.53896    1.000
    N226     N        0.02207    0.14592    0.61557    1.000
    Si227    Si       0.03534    0.13015    0.51092    1.000
    Si228    Si       0.99331    0.17902    0.61665    1.000
    N229     N        0.01064    0.16338    0.49594    1.000
    Si230    Si       0.04789    0.12702    0.58819    1.000
    Si231    Si       0.21344    0.13456    0.55630    1.000
    N232     N        0.18953    0.17294    0.55940    1.000
    N233     N        0.13585    0.17039    0.61278    1.000
    Si234    Si       0.23623    0.17183    0.61715    1.000
    N235     N        0.23813    0.13500    0.59218    1.000
    Si236    Si       0.01375    0.14093    0.72811    1.000
    N237     N        0.07547    0.16788    0.65289    1.000
    Si238    Si       0.03449    0.15273    0.65687    1.000
    N239     N        0.10934    0.16466    0.72035    1.000
    N240     N        0.02266    0.12768    0.68761    1.000
    Si241    Si       0.18219    0.15462    0.73033    1.000
    Si242    Si       0.15908    0.18336    0.64975    1.000
    N243     N        0.17295    0.15820    0.68468    1.000
    N244     N        0.22294    0.15459    0.71801    1.000
    N245     N        0.19829    0.18423    0.63412    1.000
    Si246    Si       0.21504    0.15464    0.67517    1.000
    N247     N        0.10751    0.15016    0.78582    1.000
    N248     N        0.04470    0.15036    0.75612    1.000
    Si249    Si       0.99674    0.14761    0.84475    1.000
    N250     N        0.03583    0.12776    0.84990    1.000
    Si251    Si       0.01992    0.18083    0.77435    1.000
    N252     N        0.99279    0.15947    0.80005    1.000
    N253     N        0.15882    0.14587    0.84014    1.000
    Si254    Si       0.18873    0.15704    0.81261    1.000
    N255     N        0.22955    0.15002    0.82784    1.000
    N256     N        0.19163    0.13534    0.77420    1.000
    Si257    Si       0.11860    0.18326    0.75859    1.000
    Si258    Si       0.12435    0.12561    0.81719    1.000
    Si259    Si       0.06525    0.13641    0.87911    1.000
    N260     N        0.04542    0.16499    0.90796    1.000
    Si261    Si       0.01975    0.15995    0.94139    1.000
    N262     N        0.10164    0.16294    0.87973    1.000
    N263     N        0.09225    0.18031    0.95063    1.000
    N264     N        0.03416    0.12397    0.96187    1.000
    Si265    Si       0.14530    0.15211    0.88242    1.000
    Si266    Si       0.13186    0.16374    0.95853    1.000
    N267     N        0.15095    0.17403    0.92198    1.000
    N268     N        0.22901    0.15300    0.95155    1.000
    N269     N        0.13523    0.12369    0.96993    1.000
    Si270    Si       0.07207    0.21209    0.08375    1.000
    N271     N        0.01210    0.22927    0.11069    1.000
    N272     N        0.04457    0.23058    0.05317    1.000
    Si273    Si       0.00464    0.23532    0.06781    1.000
    N274     N        0.10461    0.20447    0.05700    1.000
    Si275    Si       0.14351    0.21514    0.08108    1.000
    N276     N        0.17883    0.20803    0.05667    1.000
    Si277    Si       0.21638    0.19607    0.07170    1.000
    Si278    Si       0.17151    0.21287    0.01491    1.000
    N279     N        0.13679    0.18739    0.11191    1.000
    N280     N        0.20854    0.19658    0.99775    1.000
    N281     N        0.13674    0.19102    0.99646    1.000
    N282     N        0.00756    0.23642    0.23385    1.000
    N283     N        0.04413    0.19150    0.19665    1.000
    Si284    Si       0.01794    0.22482    0.19310    1.000
    Si285    Si       0.14362    0.19612    0.19368    1.000
    N286     N        0.13449    0.23283    0.21546    1.000
    N287     N        0.17272    0.20910    0.16387    1.000
    N288     N        0.21375    0.21856    0.21339    1.000
    Si289    Si       0.20743    0.23740    0.16996    1.000
    N290     N        0.01495    0.20959    0.29898    1.000
    Si291    Si       0.08886    0.19843    0.30373    1.000
    N292     N        0.09717    0.20339    0.26232    1.000
    N293     N        0.07499    0.23469    0.32347    1.000
    Si294    Si       0.10817    0.24220    0.24889    1.000
    Si295    Si       0.11898    0.20879    0.36407    1.000
    N296     N        0.18552    0.21574    0.33378    1.000
    Si297    Si       0.22539    0.21173    0.32112    1.000
    N298     N        0.17499    0.19852    0.27308    1.000
    Si299    Si       0.19984    0.22667    0.25201    1.000
    N300     N        0.12527    0.18852    0.32596    1.000
    N301     N        0.23480    0.22621    0.27932    1.000
    N302     N        0.08184    0.19217    0.38133    1.000
    N303     N        0.04247    0.22064    0.47792    1.000
    N304     N        0.01347    0.23198    0.41622    1.000
    Si305    Si       0.00628    0.23656    0.45979    1.000
    Si306    Si       0.01013    0.18827    0.40986    1.000
    N307     N        0.10749    0.23664    0.49324    1.000
    Si308    Si       0.16926    0.22446    0.41328    1.000
    Si309    Si       0.23765    0.19187    0.42577    1.000
    N310     N        0.14765    0.19272    0.39285    1.000
    N311     N        0.19469    0.19707    0.43874    1.000
    N312     N        0.06223    0.21812    0.54385    1.000
    N313     N        0.01127    0.21458    0.59568    1.000
    Si314    Si       0.05020    0.22902    0.58270    1.000
    N315     N        0.08783    0.22140    0.60506    1.000
    Si316    Si       0.06632    0.24161    0.50741    1.000
    N317     N        0.23789    0.20153    0.50690    1.000
    Si318    Si       0.20549    0.20594    0.53520    1.000
    N319     N        0.15511    0.22835    0.58556    1.000
    N320     N        0.17429    0.22329    0.51015    1.000
    N321     N        0.22085    0.23484    0.56436    1.000
    Si322    Si       0.13444    0.20468    0.50274    1.000
    N323     N        0.12330    0.18766    0.54024    1.000
    Si324    Si       0.15045    0.18835    0.57477    1.000
    Si325    Si       0.01736    0.20433    0.70183    1.000
    Si326    Si       0.09398    0.18621    0.68562    1.000
    N327     N        0.00433    0.18686    0.66040    1.000
    N328     N        0.05944    0.20977    0.70290    1.000
    Si329    Si       0.07875    0.23759    0.72953    1.000
    N330     N        0.99810    0.18204    0.73411    1.000
    N331     N        0.12795    0.20673    0.66889    1.000
    N332     N        0.02852    0.22047    0.78556    1.000
    N333     N        0.09852    0.22307    0.76605    1.000
    Si334    Si       0.98822    0.22685    0.85425    1.000
    N335     N        0.18822    0.20035    0.81171    1.000
    Si336    Si       0.19532    0.21054    0.77099    1.000
    Si337    Si       0.19136    0.22453    0.84614    1.000
    N338     N        0.23840    0.19868    0.77026    1.000
    N339     N        0.22623    0.21842    0.86917    1.000
    N340     N        0.16345    0.18886    0.75100    1.000
    N341     N        0.02228    0.19611    0.96844    1.000
    Si342    Si       0.06309    0.19060    0.98107    1.000
    N343     N        0.08237    0.22757    0.89913    1.000
    Si344    Si       0.99720    0.23189    0.96155    1.000
    Si345    Si       0.08287    0.18735    0.90882    1.000
    N346     N        0.07952    0.22734    0.99414    1.000
    N347     N        0.15832    0.22193    0.87627    1.000
    Si348    Si       0.22334    0.22551    0.96970    1.000
    Si349    Si       0.15878    0.21757    0.91919    1.000
    Si350    Si       0.12007    0.23094    0.98410    1.000
    N351     N        0.19763    0.22857    0.93389    1.000
    N352     N        0.12896    0.23922    0.94264    1.000
    Si353    Si       0.23391    0.23091    0.91053    1.000
    N354     N        0.08925    0.28845    0.03370    1.000
    Si355    Si       0.06264    0.25585    0.02161    1.000
    N356     N        0.03174    0.28703    0.00979    1.000
    Si357    Si       0.98997    0.28514    0.01907    1.000
    N358     N        0.99036    0.27465    0.06363    1.000
    N359     N        0.03551    0.29991    0.12311    1.000
    Si360    Si       0.10947    0.27233    0.11961    1.000
    N361     N        0.07625    0.24658    0.10971    1.000
    N362     N        0.14935    0.25187    0.00987    1.000
    N363     N        0.14455    0.25605    0.09404    1.000
    N364     N        0.20849    0.27491    0.06127    1.000
    Si365    Si       0.17059    0.28808    0.08192    1.000
    Si366    Si       0.13135    0.29267    0.01970    1.000
    Si367    Si       0.22251    0.28456    0.02155    1.000
    Si368    Si       0.23486    0.26305    0.09337    1.000
    Si369    Si       0.03855    0.25716    0.12879    1.000
    N370     N        0.04235    0.25467    0.17085    1.000
    Si371    Si       0.07240    0.27859    0.18712    1.000
    N372     N        0.07469    0.26501    0.22967    1.000
    N373     N        0.11074    0.27114    0.16314    1.000
    Si374    Si       0.03546    0.26989    0.24512    1.000
    N375     N        0.20813    0.25871    0.12804    1.000
    N376     N        0.18413    0.27498    0.18202    1.000
    Si377    Si       0.14250    0.26945    0.19409    1.000
    Si378    Si       0.20359    0.28938    0.21886    1.000
    Si379    Si       0.19772    0.29690    0.14538    1.000
    Si380    Si       0.10596    0.26490    0.32564    1.000
    N381     N        0.02925    0.27967    0.28679    1.000
    N382     N        0.00875    0.25300    0.35015    1.000
    Si383    Si       0.03393    0.24593    0.31451    1.000
    Si384    Si       0.17632    0.25358    0.35147    1.000
    N385     N        0.12449    0.25883    0.28616    1.000
    Si386    Si       0.16108    0.28221    0.28413    1.000
    N387     N        0.18438    0.28219    0.32046    1.000
    N388     N        0.13234    0.24973    0.35542    1.000
    N389     N        0.18575    0.26789    0.25256    1.000
    N390     N        0.06491    0.26993    0.39173    1.000
    Si391    Si       0.02253    0.26484    0.38980    1.000
    N392     N        0.00042    0.27944    0.46641    1.000
    N393     N        0.09757    0.29289    0.45141    1.000
    Si394    Si       0.10328    0.27721    0.40916    1.000
    N395     N        0.99270    0.29492    0.40195    1.000
    Si396    Si       0.23987    0.25126    0.38627    1.000
    N397     N        0.16305    0.28318    0.47906    1.000
    N398     N        0.19762    0.24864    0.38915    1.000
    Si399    Si       0.12655    0.26437    0.46623    1.000
    N400     N        0.13387    0.24844    0.42599    1.000
    N401     N        0.04585    0.27320    0.58711    1.000
    N402     N        0.05284    0.28145    0.51643    1.000
    Si403    Si       0.06780    0.29214    0.55448    1.000
    N404     N        0.10913    0.27868    0.56869    1.000
    N405     N        0.99188    0.28057    0.62487    1.000
    Si406    Si       0.12029    0.24966    0.60000    1.000
    Si407    Si       0.18726    0.25705    0.58058    1.000
    N408     N        0.18200    0.28859    0.54907    1.000
    Si409    Si       0.18668    0.26752    0.51136    1.000
    N410     N        0.20290    0.27658    0.61488    1.000
    N411     N        0.22853    0.27081    0.50367    1.000
    Si412    Si       0.03463    0.29151    0.62662    1.000
    Si413    Si       0.08198    0.29380    0.69877    1.000
    N414     N        0.04752    0.26877    0.72952    1.000
    Si415    Si       0.02014    0.27117    0.69706    1.000
    N416     N        0.04769    0.28185    0.66738    1.000
    N417     N        0.10851    0.25934    0.70414    1.000
    N418     N        0.18201    0.26145    0.68812    1.000
    Si419    Si       0.20206    0.26920    0.72630    1.000
    N420     N        0.12969    0.26795    0.64035    1.000
    Si421    Si       0.19823    0.28922    0.65740    1.000
    Si422    Si       0.13931    0.24855    0.67732    1.000
    N423     N        0.05890    0.28325    0.79878    1.000
    Si424    Si       0.09497    0.25511    0.79651    1.000
    N425     N        0.00076    0.28443    0.77289    1.000
    Si426    Si       0.02039    0.25778    0.80632    1.000
    Si427    Si       0.06719    0.24958    0.86374    1.000
    N428     N        0.10289    0.25044    0.83940    1.000
    Si429    Si       0.04298    0.29953    0.76125    1.000
    N430     N        0.02680    0.24316    0.84921    1.000
    Si431    Si       0.16513    0.27620    0.79012    1.000
    N432     N        0.12439    0.28277    0.78166    1.000
    N433     N        0.17475    0.26322    0.83406    1.000
    N434     N        0.18675    0.25136    0.76424    1.000
    Si435    Si       0.13846    0.25723    0.86018    1.000
    Si436    Si       0.09853    0.26479    0.91875    1.000
    N437     N        0.06952    0.28430    0.89017    1.000
    N438     N        0.08347    0.28743    0.95485    1.000
    N439     N        0.01717    0.26772    0.94307    1.000
    Si440    Si       0.04139    0.29685    0.96693    1.000
    Si441    Si       0.99465    0.30260    0.92429    1.000
    N442     N        0.24057    0.27436    0.90963    1.000
    Si443    Si       0.22514    0.29364    0.94606    1.000
    N444     N        0.13225    0.28283    0.89447    1.000
    N445     N        0.23221    0.26613    0.98002    1.000
    N446     N        0.02147    0.33314    0.05921    1.000
    Si447    Si       0.05895    0.32382    0.03148    1.000
    N448     N        0.09953    0.31194    0.10701    1.000
    N449     N        0.08408    0.35299    0.05315    1.000
    Si450    Si       0.00610    0.30813    0.09110    1.000
    Si451    Si       0.11705    0.33442    0.07476    1.000
    N452     N        0.20372    0.32270    0.01135    1.000
    N453     N        0.14614    0.31023    0.05503    1.000
    N454     N        0.17269    0.31573    0.11676    1.000
    Si455    Si       0.22236    0.35774    0.02962    1.000
    Si456    Si       0.06772    0.32890    0.13448    1.000
    Si457    Si       0.04270    0.34291    0.20548    1.000
    N458     N        0.07308    0.32467    0.17922    1.000
    N459     N        0.02106    0.30559    0.22259    1.000
    Si460    Si       0.11374    0.33806    0.19115    1.000
    N461     N        0.22550    0.32800    0.15477    1.000
    Si462    Si       0.16353    0.35762    0.12439    1.000
    N463     N        0.19487    0.33166    0.22795    1.000
    Si464    Si       0.15350    0.33533    0.23948    1.000
    N465     N        0.13383    0.30572    0.21304    1.000
    N466     N        0.13774    0.35777    0.15875    1.000
    N467     N        0.00777    0.32577    0.34494    1.000
    Si468    Si       0.01219    0.31781    0.30090    1.000
    Si469    Si       0.09728    0.33568    0.35962    1.000
    N470     N        0.03872    0.35426    0.30129    1.000
    N471     N        0.09280    0.30376    0.33059    1.000
    N472     N        0.15160    0.32477    0.28195    1.000
    N473     N        0.19673    0.34430    0.33049    1.000
    Si474    Si       0.21938    0.30981    0.31479    1.000
    Si475    Si       0.15751    0.35192    0.31487    1.000
    Si476    Si       0.22724    0.35190    0.24834    1.000
    N477     N        0.03266    0.34707    0.49534    1.000
    Si478    Si       0.10854    0.33264    0.44065    1.000
    N479     N        0.06217    0.36062    0.37101    1.000
    N480     N        0.19323    0.33486    0.43386    1.000
    Si481    Si       0.23625    0.32627    0.42437    1.000
    N482     N        0.11417    0.32184    0.39829    1.000
    Si483    Si       0.17516    0.32403    0.47191    1.000
    N484     N        0.13778    0.34571    0.47166    1.000
    N485     N        0.08275    0.33258    0.55320    1.000
    Si486    Si       0.00851    0.35364    0.52910    1.000
    N487     N        0.99501    0.31141    0.53149    1.000
    Si488    Si       0.02153    0.30423    0.49617    1.000
    N489     N        0.12437    0.33263    0.60802    1.000
    Si490    Si       0.12216    0.32060    0.56789    1.000
    Si491    Si       0.19073    0.33529    0.54201    1.000
    N492     N        0.14706    0.34358    0.54067    1.000
    N493     N        0.20592    0.33163    0.50105    1.000
    N494     N        0.04093    0.33578    0.62097    1.000
    Si495    Si       0.06633    0.34563    0.65604    1.000
    Si496    Si       0.99565    0.34109    0.68835    1.000
    N497     N        0.03812    0.34812    0.68904    1.000
    N498     N        0.09884    0.32139    0.67023    1.000
    N499     N        0.08008    0.31861    0.73629    1.000
    Si500    Si       0.05494    0.35594    0.72959    1.000
    N501     N        0.21514    0.36083    0.62185    1.000
    N502     N        0.20822    0.31119    0.73597    1.000
    Si503    Si       0.12964    0.30943    0.64315    1.000
    N504     N        0.16862    0.32132    0.65954    1.000
    Si505    Si       0.18313    0.35949    0.64806    1.000
    N506     N        0.02398    0.34134    0.75770    1.000
    Si507    Si       0.99936    0.33977    0.85957    1.000
    N508     N        0.09133    0.34403    0.79508    1.000
    N509     N        0.02740    0.34380    0.82478    1.000
    N510     N        0.08347    0.33890    0.86143    1.000
    Si511    Si       0.06607    0.32398    0.82361    1.000
    Si512    Si       0.11282    0.32231    0.76438    1.000
    N513     N        0.18508    0.31458    0.80022    1.000
    Si514    Si       0.19023    0.33871    0.76440    1.000
    N515     N        0.14772    0.34670    0.75244    1.000
    Si516    Si       0.20135    0.30108    0.83750    1.000
    N517     N        0.01725    0.32388    0.89576    1.000
    N518     N        0.01163    0.33003    0.95869    1.000
    Si519    Si       0.06059    0.32357    0.89587    1.000
    Si520    Si       0.09799    0.32746    0.96442    1.000
    N521     N        0.07691    0.34669    0.93121    1.000
    N522     N        0.06714    0.33954    0.99225    1.000
    Si523    Si       0.17733    0.33197    0.97959    1.000
    N524     N        0.14140    0.35129    0.90815    1.000
    N525     N        0.18538    0.30587    0.94283    1.000
    N526     N        0.18721    0.32044    0.87426    1.000
    N527     N        0.13599    0.32327    0.98625    1.000
    Si528    Si       0.16097    0.31205    0.90781    1.000
    Si529    Si       0.08724    0.39490    0.04728    1.000
    Si530    Si       0.99818    0.36858    0.04708    1.000
    N531     N        0.00878    0.41230    0.05414    1.000
    Si532    Si       0.10243    0.39226    0.11649    1.000
    N533     N        0.01110    0.37318    0.00225    1.000
    Si534    Si       0.02279    0.41746    0.01410    1.000
    N535     N        0.09029    0.41891    0.08368    1.000
    N536     N        0.99981    0.40636    0.12512    1.000
    N537     N        0.06543    0.42068    0.01868    1.000
    Si538    Si       0.20644    0.40782    0.00159    1.000
    N539     N        0.13778    0.37068    0.09106    1.000
    N540     N        0.19484    0.38909    0.04202    1.000
    Si541    Si       0.15643    0.39747    0.06054    1.000
    N542     N        0.12683    0.40217    0.02786    1.000
    N543     N        0.06594    0.37157    0.12959    1.000
    Si544    Si       0.09499    0.39443    0.23794    1.000
    N545     N        0.02009    0.37091    0.17898    1.000
    Si546    Si       0.03637    0.39654    0.14708    1.000
    N547     N        0.06215    0.36667    0.23582    1.000
    N548     N        0.17535    0.41313    0.19287    1.000
    N549     N        0.19646    0.38496    0.12996    1.000
    Si550    Si       0.13668    0.39662    0.18413    1.000
    Si551    Si       0.23419    0.37192    0.14900    1.000
    N552     N        0.12878    0.36764    0.22157    1.000
    N553     N        0.11685    0.41783    0.15003    1.000
    N554     N        0.23994    0.40969    0.16849    1.000
    N555     N        0.09204    0.39625    0.28161    1.000
    Si556    Si       0.05037    0.38474    0.27451    1.000
    N557     N        0.00454    0.39563    0.34711    1.000
    Si558    Si       0.03092    0.36204    0.34357    1.000
    Si559    Si       0.11776    0.40165    0.31517    1.000
    N560     N        0.15885    0.39368    0.30028    1.000
    N561     N        0.22284    0.40445    0.32882    1.000
    Si562    Si       0.21302    0.37195    0.35963    1.000
    N563     N        0.21193    0.39263    0.25370    1.000
    Si564    Si       0.19772    0.41054    0.29038    1.000
    N565     N        0.12190    0.36315    0.33749    1.000
    N566     N        0.10467    0.41097    0.39574    1.000
    Si567    Si       0.06222    0.37536    0.47997    1.000
    N568     N        0.03269    0.40493    0.41753    1.000
    Si569    Si       0.07037    0.38416    0.40676    1.000
    N570     N        0.08122    0.36381    0.44374    1.000
    Si571    Si       0.14843    0.41396    0.39874    1.000
    N572     N        0.16424    0.40760    0.44014    1.000
    N573     N        0.18041    0.38782    0.38409    1.000
    Si574    Si       0.19272    0.37787    0.42497    1.000
    N575     N        0.23234    0.39023    0.43777    1.000
    N576     N        0.09289    0.38451    0.51245    1.000
    N577     N        0.09858    0.39562    0.58327    1.000
    Si578    Si       0.07410    0.37500    0.55347    1.000
    Si579    Si       0.01630    0.36978    0.60467    1.000
    N580     N        0.03152    0.37192    0.56215    1.000
    Si581    Si       0.11701    0.37508    0.61569    1.000
    Si582    Si       0.19993    0.40519    0.53298    1.000
    N583     N        0.16359    0.40230    0.50759    1.000
    Si584    Si       0.13338    0.36851    0.50728    1.000
    N585     N        0.20927    0.37192    0.55755    1.000
    N586     N        0.23417    0.40547    0.50370    1.000
    N587     N        0.02919    0.40403    0.62742    1.000
    N588     N        0.08678    0.38129    0.64577    1.000
    N589     N        0.07671    0.38978    0.74473    1.000
    N590     N        0.20647    0.38218    0.67684    1.000
    N591     N        0.23850    0.40634    0.73407    1.000
    N592     N        0.16625    0.41192    0.72046    1.000
    Si593    Si       0.20624    0.41363    0.70401    1.000
    Si594    Si       0.23186    0.39803    0.63901    1.000
    N595     N        0.15417    0.38483    0.63049    1.000
    Si596    Si       0.09150    0.38770    0.78800    1.000
    N597     N        0.00184    0.40847    0.78953    1.000
    N598     N        0.06702    0.41013    0.81501    1.000
    Si599    Si       0.00744    0.36481    0.79109    1.000
    N600     N        0.19234    0.38163    0.77729    1.000
    Si601    Si       0.17739    0.38864    0.81852    1.000
    N602     N        0.21086    0.37397    0.84494    1.000
    Si603    Si       0.15406    0.38991    0.75514    1.000
    N604     N        0.13054    0.40614    0.78668    1.000
    N605     N        0.14937    0.36850    0.84671    1.000
    Si606    Si       0.23586    0.38752    0.77364    1.000
    N607     N        0.04711    0.40284    0.94161    1.000
    Si608    Si       0.08725    0.39001    0.92834    1.000
    N609     N        0.09632    0.39918    0.88616    1.000
    Si610    Si       0.04073    0.36382    0.96562    1.000
    Si611    Si       0.11658    0.36474    0.87282    1.000
    N612     N        0.19076    0.37223    0.96713    1.000
    N613     N        0.12209    0.39719    0.95438    1.000
    Si614    Si       0.23347    0.36881    0.95985    1.000
    Si615    Si       0.18125    0.36364    0.87791    1.000
    Si616    Si       0.15840    0.38103    0.93766    1.000
    N617     N        0.18355    0.39634    0.90528    1.000
    Si618    Si       0.13253    0.42147    0.99072    1.000
    Si619    Si       0.00134    0.43201    0.09122    1.000
    N620     N        0.03028    0.46386    0.09012    1.000
    Si621    Si       0.08271    0.45999    0.01664    1.000
    N622     N        0.09769    0.48006    0.11850    1.000
    Si623    Si       0.11258    0.45485    0.08456    1.000
    Si624    Si       0.18263    0.46276    0.09834    1.000
    N625     N        0.22098    0.46155    0.07941    1.000
    N626     N        0.15249    0.43662    0.08071    1.000
    N627     N        0.23228    0.44525    0.00429    1.000
    Si628    Si       0.05356    0.47224    0.12468    1.000
    N629     N        0.10444    0.42586    0.21009    1.000
    N630     N        0.05359    0.43728    0.15274    1.000
    Si631    Si       0.09271    0.44626    0.17172    1.000
    Si632    Si       0.10613    0.46526    0.23063    1.000
    Si633    Si       0.19862    0.42185    0.15598    1.000
    Si634    Si       0.19748    0.42581    0.22893    1.000
    N635     N        0.22416    0.45813    0.21371    1.000
    N636     N        0.18966    0.46036    0.13971    1.000
    Si637    Si       0.04548    0.46383    0.26405    1.000
    N638     N        0.10738    0.43978    0.33186    1.000
    N639     N        0.08867    0.46698    0.27026    1.000
    N640     N        0.03376    0.42278    0.26211    1.000
    Si641    Si       0.99107    0.42505    0.25082    1.000
    Si642    Si       0.08495    0.44260    0.37085    1.000
    N643     N        0.18407    0.44714    0.26439    1.000
    N644     N        0.04160    0.45122    0.37443    1.000
    Si645    Si       0.02496    0.43058    0.45215    1.000
    N646     N        0.02726    0.47089    0.43982    1.000
    N647     N        0.05435    0.41798    0.48045    1.000
    Si648    Si       0.01267    0.41965    0.38187    1.000
    N649     N        0.12186    0.44726    0.48060    1.000
    N650     N        0.16607    0.45312    0.39014    1.000
    N651     N        0.18807    0.46641    0.48133    1.000
    Si652    Si       0.16198    0.43029    0.47623    1.000
    Si653    Si       0.20808    0.46273    0.38330    1.000
    N654     N        0.08799    0.44704    0.54248    1.000
    N655     N        0.03370    0.46930    0.57821    1.000
    Si656    Si       0.09033    0.42834    0.50234    1.000
    Si657    Si       0.10567    0.43863    0.58245    1.000
    Si658    Si       0.04593    0.47859    0.61793    1.000
    Si659    Si       0.99110    0.47299    0.56681    1.000
    N660     N        0.08353    0.45329    0.62138    1.000
    Si661    Si       0.18952    0.45955    0.58785    1.000
    N662     N        0.20455    0.44816    0.54827    1.000
    N663     N        0.14706    0.44371    0.59044    1.000
    Si664    Si       0.20820    0.47734    0.51795    1.000
    Si665    Si       0.99402    0.43250    0.62714    1.000
    N666     N        0.05596    0.43034    0.68819    1.000
    N667     N        0.01717    0.46491    0.64692    1.000
    Si668    Si       0.02383    0.45876    0.68894    1.000
    Si669    Si       0.07686    0.42788    0.72602    1.000
    N670     N        0.11264    0.45120    0.72509    1.000
    Si671    Si       0.06626    0.41872    0.64627    1.000
    N672     N        0.20275    0.43236    0.62337    1.000
    N673     N        0.14088    0.44929    0.65911    1.000
    Si674    Si       0.22124    0.45895    0.65389    1.000
    Si675    Si       0.11632    0.47861    0.63507    1.000
    Si676    Si       0.15884    0.42603    0.62978    1.000
    Si677    Si       0.15098    0.45280    0.70121    1.000
    N678     N        0.19862    0.45891    0.69130    1.000
    Si679    Si       0.03593    0.43291    0.79220    1.000
    N680     N        0.02273    0.46706    0.81448    1.000
    Si681    Si       0.00894    0.45979    0.85527    1.000
    N682     N        0.05078    0.44959    0.75487    1.000
    Si683    Si       0.07732    0.42765    0.85586    1.000
    N684     N        0.10870    0.45459    0.84467    1.000
    Si685    Si       0.13652    0.44389    0.81021    1.000
    Si686    Si       0.19583    0.45736    0.85311    1.000
    N687     N        0.17507    0.43139    0.82598    1.000
    N688     N        0.22809    0.43416    0.87123    1.000
    N689     N        0.04281    0.44540    0.87614    1.000
    Si690    Si       0.02993    0.43607    0.91855    1.000
    N691     N        0.00078    0.43982    0.98459    1.000
    N692     N        0.11048    0.46045    0.98631    1.000
    N693     N        0.10265    0.47840    0.91687    1.000
    N694     N        0.03251    0.47660    0.94017    1.000
    Si695    Si       0.21627    0.42493    0.91112    1.000
    N696     N        0.20705    0.45856    0.93673    1.000
    N697     N        0.17379    0.43322    0.98826    1.000
    N698     N        0.16713    0.46584    0.88404    1.000
    Si699    Si       0.20020    0.46791    0.97889    1.000
    Si700    Si       0.12270    0.47774    0.87822    1.000
    Si701    Si       0.02891    0.48958    0.05597    1.000
    Si702    Si       0.09231    0.52304    0.05899    1.000
    N703     N        0.04837    0.52471    0.06802    1.000
    N704     N        0.10214    0.48040    0.05068    1.000
    N705     N        0.04410    0.48129    0.01385    1.000
    N706     N        0.22776    0.52552    0.06146    1.000
    N707     N        0.16193    0.50291    0.08750    1.000
    Si708    Si       0.12889    0.51309    0.11629    1.000
    Si709    Si       0.18396    0.53304    0.06156    1.000
    Si710    Si       0.99028    0.49330    0.22867    1.000
    N711     N        0.03685    0.50513    0.15089    1.000
    Si712    Si       0.05291    0.50708    0.19382    1.000
    N713     N        0.09204    0.48483    0.19394    1.000
    N714     N        0.03280    0.48204    0.22439    1.000
    N715     N        0.14344    0.51655    0.15694    1.000
    Si716    Si       0.22330    0.50190    0.22311    1.000
    N717     N        0.21520    0.51971    0.12744    1.000
    N718     N        0.14049    0.49020    0.23267    1.000
    Si719    Si       0.12609    0.51540    0.19779    1.000
    N720     N        0.19858    0.52052    0.19152    1.000
    Si721    Si       0.18684    0.50302    0.15488    1.000
    N722     N        0.08396    0.50738    0.32919    1.000
    Si723    Si       0.05098    0.52171    0.30804    1.000
    N724     N        0.02830    0.48903    0.29457    1.000
    Si725    Si       0.10807    0.47665    0.30700    1.000
    Si726    Si       0.17267    0.51057    0.33545    1.000
    N727     N        0.19921    0.51632    0.25605    1.000
    N728     N        0.14872    0.49211    0.30397    1.000
    Si729    Si       0.16713    0.48784    0.26480    1.000
    N730     N        0.20785    0.48739    0.34699    1.000
    Si731    Si       0.08313    0.51840    0.37123    1.000
    N732     N        0.03881    0.52100    0.37953    1.000
    Si733    Si       0.03979    0.49646    0.47345    1.000
    N734     N        0.08123    0.50456    0.46538    1.000
    Si735    Si       0.02249    0.48589    0.39894    1.000
    N736     N        0.09920    0.48137    0.38872    1.000
    N737     N        0.15296    0.52041    0.37248    1.000
    N738     N        0.21708    0.49025    0.41634    1.000
    Si739    Si       0.19022    0.49628    0.44900    1.000
    N740     N        0.19561    0.53539    0.46419    1.000
    Si741    Si       0.14072    0.48656    0.39822    1.000
    N742     N        0.14748    0.49888    0.43714    1.000
    Si743    Si       0.12125    0.49057    0.47195    1.000
    N744     N        0.08077    0.51200    0.55942    1.000
    N745     N        0.03292    0.49651    0.51509    1.000
    Si746    Si       0.10366    0.53215    0.52955    1.000
    Si747    Si       0.01206    0.53044    0.53459    1.000
    Si748    Si       0.09933    0.53707    0.59079    1.000
    Si749    Si       0.05891    0.47886    0.54422    1.000
    Si750    Si       0.23763    0.51615    0.61969    1.000
    N751     N        0.19995    0.49704    0.60554    1.000
    N752     N        0.20001    0.51604    0.53288    1.000
    N753     N        0.12857    0.50890    0.60616    1.000
    Si754    Si       0.16780    0.52604    0.61208    1.000
    N755     N        0.13394    0.51829    0.50314    1.000
    Si756    Si       0.17455    0.53603    0.50350    1.000
    N757     N        0.05326    0.52010    0.62670    1.000
    N758     N        0.10611    0.50565    0.66795    1.000
    Si759    Si       0.06665    0.51693    0.67111    1.000
    N760     N        0.04630    0.49445    0.70136    1.000
    Si761    Si       0.13837    0.52824    0.68525    1.000
    N762     N        0.16851    0.53228    0.65443    1.000
    Si763    Si       0.19762    0.49337    0.71916    1.000
    N764     N        0.15412    0.49957    0.71655    1.000
    N765     N        0.21607    0.52778    0.70402    1.000
    N766     N        0.06293    0.51966    0.82300    1.000
    Si767    Si       0.02213    0.50891    0.82155    1.000
    N768     N        0.08831    0.50853    0.75698    1.000
    N769     N        0.01270    0.50948    0.75430    1.000
    N770     N        0.00450    0.50328    0.86553    1.000
    Si771    Si       0.07939    0.53702    0.78579    1.000
    Si772    Si       0.05044    0.49071    0.74301    1.000
    N773     N        0.20649    0.49365    0.83063    1.000
    Si774    Si       0.18888    0.49639    0.79008    1.000
    Si775    Si       0.20967    0.52822    0.85709    1.000
    N776     N        0.21329    0.48031    0.75670    1.000
    Si777    Si       0.12400    0.48759    0.74760    1.000
    N778     N        0.11792    0.52097    0.86835    1.000
    N779     N        0.14833    0.47714    0.78424    1.000
    Si780    Si       0.06598    0.50090    0.92625    1.000
    N781     N        0.08667    0.52304    0.95965    1.000
    N782     N        0.05601    0.52779    0.89344    1.000
    Si783    Si       0.01684    0.48055    0.98005    1.000
    Si784    Si       0.01388    0.53767    0.89175    1.000
    N785     N        0.15912    0.50043    0.95523    1.000
    N786     N        0.19131    0.52486    0.89848    1.000
    Si787    Si       0.18179    0.48788    0.92030    1.000
    Si788    Si       0.11675    0.48944    0.95572    1.000
    N789     N        0.21872    0.50641    0.98189    1.000
    Si790    Si       0.18229    0.53111    0.97907    1.000
    Si791    Si       0.03425    0.56198    0.08340    1.000
    N792     N        0.10087    0.54796    0.02300    1.000
    N793     N        0.99694    0.55399    0.10475    1.000
    N794     N        0.10964    0.54449    0.09426    1.000
    Si795    Si       0.09556    0.58099    0.11643    1.000
    N796     N        0.03384    0.59440    0.05594    1.000
    N797     N        0.18970    0.57009    0.08374    1.000
    Si798    Si       0.13955    0.56914    0.01726    1.000
    Si799    Si       0.21276    0.56021    0.11920    1.000
    N800     N        0.17123    0.54018    0.01905    1.000
    N801     N        0.05367    0.57005    0.12394    1.000
    Si802    Si       0.00287    0.56323    0.21393    1.000
    Si803    Si       0.07705    0.56269    0.23478    1.000
    N804     N        0.04477    0.54707    0.21107    1.000
    Si805    Si       0.01922    0.54391    0.14011    1.000
    N806     N        0.10871    0.55409    0.20652    1.000
    N807     N        0.98899    0.55229    0.17356    1.000
    Si808    Si       0.12566    0.59191    0.19104    1.000
    N809     N        0.12538    0.59285    0.14758    1.000
    N810     N        0.23437    0.57629    0.20226    1.000
    N811     N        0.19387    0.57923    0.15298    1.000
    Si812    Si       0.19452    0.56421    0.19340    1.000
    N813     N        0.16449    0.58789    0.21368    1.000
    N814     N        0.03217    0.55869    0.32237    1.000
    Si815    Si       0.05969    0.58576    0.29407    1.000
    N816     N        0.06870    0.54618    0.27464    1.000
    Si817    Si       0.01844    0.56031    0.36611    1.000
    N818     N        0.14610    0.58722    0.35506    1.000
    N819     N        0.18503    0.54975    0.31610    1.000
    Si820    Si       0.17832    0.59100    0.32644    1.000
    Si821    Si       0.21607    0.54652    0.28523    1.000
    N822     N        0.22879    0.58788    0.27426    1.000
    N823     N        0.09795    0.55309    0.39304    1.000
    Si824    Si       0.07127    0.54843    0.46418    1.000
    Si825    Si       0.99895    0.56450    0.47399    1.000
    Si826    Si       0.07864    0.58793    0.40804    1.000
    N827     N        0.08261    0.58806    0.44964    1.000
    N828     N        0.03785    0.58704    0.39462    1.000
    N829     N        0.02896    0.53661    0.46013    1.000
    N830     N        0.22833    0.56241    0.40936    1.000
    Si831    Si       0.14259    0.55808    0.38715    1.000
    N832     N        0.16147    0.57617    0.42000    1.000
    Si833    Si       0.19870    0.57072    0.44028    1.000
    N834     N        0.02859    0.56956    0.55279    1.000
    N835     N        0.07467    0.55437    0.50740    1.000
    N836     N        0.09165    0.57270    0.61751    1.000
    Si837    Si       0.05107    0.58810    0.52089    1.000
    Si838    Si       0.00337    0.59317    0.58141    1.000
    N839     N        0.12188    0.55845    0.55811    1.000
    Si840    Si       0.21496    0.54650    0.55889    1.000
    N841     N        0.17347    0.57807    0.51717    1.000
    N842     N        0.18197    0.55759    0.58550    1.000
    Si843    Si       0.15764    0.58151    0.55728    1.000
    N844     N        0.23188    0.58531    0.54259    1.000
    N845     N        0.02244    0.58974    0.62273    1.000
    Si846    Si       0.05341    0.56269    0.63354    1.000
    N847     N        0.06064    0.55881    0.67606    1.000
    Si848    Si       0.08741    0.58995    0.68589    1.000
    N849     N        0.23875    0.54826    0.64694    1.000
    N850     N        0.19171    0.59477    0.67326    1.000
    N851     N        0.12591    0.56952    0.68937    1.000
    Si852    Si       0.20251    0.55293    0.67023    1.000
    N853     N        0.04993    0.56450    0.76938    1.000
    N854     N        0.07743    0.57966    0.85344    1.000
    Si855    Si       0.00952    0.55045    0.76820    1.000
    N856     N        0.00804    0.57279    0.86633    1.000
    N857     N        0.99645    0.54177    0.80925    1.000
    Si858    Si       0.10317    0.59175    0.82191    1.000
    Si859    Si       0.07970    0.53642    0.85813    1.000
    N860     N        0.11508    0.55433    0.80389    1.000
    Si861    Si       0.15818    0.56131    0.80616    1.000
    N862     N        0.17548    0.55145    0.84471    1.000
    Si863    Si       0.22907    0.55455    0.77490    1.000
    N864     N        0.22652    0.59268    0.75451    1.000
    N865     N        0.18795    0.53938    0.78140    1.000
    Si866    Si       0.08824    0.55777    0.98193    1.000
    N867     N        0.00911    0.55242    0.93277    1.000
    N868     N        0.05910    0.58635    0.97130    1.000
    Si869    Si       0.02695    0.59168    0.94194    1.000
    N870     N        0.23626    0.55608    0.87411    1.000
    N871     N        0.19138    0.56521    0.95292    1.000
    Si872    Si       0.15594    0.58786    0.94289    1.000
    Si873    Si       0.21832    0.56411    0.91438    1.000
    Si874    Si       0.15274    0.54310    0.88175    1.000
    N875     N        0.14423    0.57989    0.90304    1.000
    N876     N        0.12902    0.57703    0.97610    1.000
    N877     N        0.08499    0.62481    0.01960    1.000
    N878     N        0.09366    0.61532    0.08831    1.000
    Si879    Si       0.06496    0.62486    0.05709    1.000
    Si880    Si       0.99634    0.59993    0.03358    1.000
    N881     N        0.99079    0.64113    0.02191    1.000
    Si882    Si       0.12407    0.64467    0.09918    1.000
    Si883    Si       0.18170    0.60974    0.06737    1.000
    N884     N        0.16407    0.62943    0.10109    1.000
    N885     N        0.20743    0.63529    0.04185    1.000
    Si886    Si       0.12675    0.63964    0.03154    1.000
    N887     N        0.14773    0.60306    0.04135    1.000
    Si888    Si       0.09451    0.64060    0.24024    1.000
    N889     N        0.10395    0.62979    0.19824    1.000
    N890     N        0.99589    0.60052    0.23382    1.000
    Si891    Si       0.20461    0.65634    0.18909    1.000
    Si892    Si       0.16605    0.61135    0.13989    1.000
    N893     N        0.23517    0.63942    0.16212    1.000
    N894     N        0.20580    0.64252    0.22859    1.000
    N895     N        0.16816    0.64351    0.17018    1.000
    N896     N        0.03128    0.62217    0.29770    1.000
    Si897    Si       0.06964    0.64543    0.31209    1.000
    N898     N        0.08857    0.60614    0.32184    1.000
    Si899    Si       0.99287    0.61142    0.27817    1.000
    N900     N        0.07477    0.60309    0.25201    1.000
    Si901    Si       0.11711    0.61716    0.35350    1.000
    N902     N        0.13334    0.65116    0.33492    1.000
    N903     N        0.16889    0.61591    0.29067    1.000
    N904     N        0.21847    0.60238    0.34167    1.000
    Si905    Si       0.23782    0.61767    0.30594    1.000
    N906     N        0.13881    0.64479    0.24777    1.000
    Si907    Si       0.17310    0.61874    0.24502    1.000
    N908     N        0.99222    0.63509    0.43086    1.000
    N909     N        0.02135    0.59697    0.48898    1.000
    Si910    Si       0.01380    0.63708    0.46832    1.000
    Si911    Si       0.08480    0.62765    0.47204    1.000
    N912     N        0.10236    0.62111    0.39376    1.000
    N913     N        0.05346    0.65627    0.46019    1.000
    N914     N        0.21236    0.60454    0.46814    1.000
    N915     N        0.12041    0.64900    0.46425    1.000
    Si916    Si       0.24001    0.59573    0.37971    1.000
    Si917    Si       0.11789    0.65405    0.41951    1.000
    N918     N        0.22540    0.63038    0.40314    1.000
    Si919    Si       0.23013    0.63788    0.44596    1.000
    Si920    Si       0.10462    0.63808    0.54597    1.000
    N921     N        0.07737    0.63069    0.58029    1.000
    N922     N        0.00679    0.63309    0.56525    1.000
    N923     N        0.08201    0.61834    0.51455    1.000
    Si924    Si       0.09610    0.61449    0.61724    1.000
    N925     N        0.19820    0.62333    0.60178    1.000
    N926     N        0.14130    0.62182    0.56257    1.000
    Si927    Si       0.16075    0.64421    0.59513    1.000
    N928     N        0.20480    0.64389    0.53618    1.000
    Si929    Si       0.22636    0.62195    0.57025    1.000
    Si930    Si       0.20674    0.60714    0.51086    1.000
    N931     N        0.08279    0.60642    0.72480    1.000
    N932     N        0.08028    0.62266    0.65674    1.000
    N933     N        0.01297    0.63816    0.67733    1.000
    Si934    Si       0.99805    0.60528    0.65352    1.000
    Si935    Si       0.11848    0.63290    0.72905    1.000
    N936     N        0.13041    0.64011    0.62538    1.000
    Si937    Si       0.15592    0.59993    0.69604    1.000
    N938     N        0.20490    0.64905    0.72191    1.000
    N939     N        0.14202    0.64244    0.69136    1.000
    Si940    Si       0.21072    0.62210    0.64324    1.000
    N941     N        0.15519    0.60829    0.73927    1.000
    N942     N        0.08651    0.62014    0.79171    1.000
    N943     N        0.02431    0.62913    0.76811    1.000
    N944     N        0.02769    0.63606    0.84825    1.000
    Si945    Si       0.05793    0.60498    0.76010    1.000
    Si946    Si       0.02807    0.64758    0.80657    1.000
    Si947    Si       0.04179    0.60078    0.86768    1.000
    N948     N        0.14664    0.60295    0.81934    1.000
    Si949    Si       0.16408    0.64297    0.82007    1.000
    N950     N        0.19690    0.64285    0.79174    1.000
    Si951    Si       0.19447    0.62145    0.75492    1.000
    N952     N        0.17733    0.64016    0.86299    1.000
    Si953    Si       0.06685    0.62707    0.98085    1.000
    N954     N        0.04806    0.61459    0.90990    1.000
    Si955    Si       0.07669    0.64537    0.91409    1.000
    N956     N        0.09620    0.64443    0.95522    1.000
    N957     N        0.11017    0.63939    0.88615    1.000
    Si958    Si       0.98967    0.64402    0.97768    1.000
    N959     N        0.03331    0.65093    0.96855    1.000
    Si960    Si       0.22868    0.64187    0.93225    1.000
    Si961    Si       0.21935    0.63356    0.87106    1.000
    Si962    Si       0.15033    0.62288    0.88992    1.000
    N963     N        0.15691    0.63047    0.93365    1.000
    N964     N        0.21941    0.60905    0.90790    1.000
    Si965    Si       0.08353    0.69612    0.06670    1.000
    Si966    Si       0.01428    0.67487    0.03930    1.000
    N967     N        0.05105    0.66658    0.06019    1.000
    N968     N        0.02254    0.70869    0.00911    1.000
    N969     N        0.07839    0.71113    0.10638    1.000
    N970     N        0.99075    0.70488    0.06288    1.000
    N971     N        0.11783    0.66834    0.06273    1.000
    N972     N        0.21231    0.69855    0.01534    1.000
    Si973    Si       0.19213    0.65898    0.00667    1.000
    N974     N        0.14985    0.65679    0.99929    1.000
    N975     N        0.06807    0.67507    0.23002    1.000
    N976     N        0.00336    0.69567    0.12754    1.000
    Si977    Si       0.03479    0.68699    0.20216    1.000
    N978     N        0.05962    0.70687    0.17219    1.000
    N979     N        0.00335    0.65882    0.19104    1.000
    N980     N        0.01037    0.71631    0.21882    1.000
    N981     N        0.20959    0.69979    0.18564    1.000
    Si982    Si       0.11807    0.70999    0.13286    1.000
    N983     N        0.11380    0.66479    0.13501    1.000
    N984     N        0.13171    0.70239    0.18197    1.000
    Si985    Si       0.12471    0.65937    0.17464    1.000
    N986     N        0.06827    0.67381    0.34545    1.000
    Si987    Si       0.08524    0.70175    0.25995    1.000
    N988     N        0.09392    0.66462    0.28369    1.000
    N989     N        0.16720    0.69212    0.29465    1.000
    N990     N        0.19793    0.67843    0.35407    1.000
    Si991    Si       0.20879    0.68786    0.31376    1.000
    Si992    Si       0.15656    0.67788    0.35897    1.000
    N993     N        0.13093    0.71284    0.36107    1.000
    N994     N        0.23147    0.65873    0.29099    1.000
    N995     N        0.12351    0.71713    0.24684    1.000
    Si996    Si       0.13925    0.65633    0.29025    1.000
    Si997    Si       0.09056    0.70013    0.37197    1.000
    Si998    Si       0.05556    0.69088    0.43334    1.000
    N999     N        0.09193    0.68713    0.41157    1.000
    N1000    N        0.02510    0.68757    0.40159    1.000
    N1001    N        0.15461    0.66011    0.39823    1.000
    Si1002   Si       0.19844    0.66405    0.39748    1.000
    Si1003   Si       0.13059    0.68228    0.49243    1.000
    Si1004   Si       0.19257    0.70678    0.46453    1.000
    N1005    N        0.20668    0.67639    0.43831    1.000
    N1006    N        0.04444    0.68998    0.55343    1.000
    Si1007   Si       0.08334    0.70751    0.54762    1.000
    N1008    N        0.10891    0.67745    0.53012    1.000
    N1009    N        0.99313    0.66082    0.49882    1.000
    Si1010   Si       0.04052    0.65477    0.58260    1.000
    N1011    N        0.04713    0.67351    0.62238    1.000
    N1012    N        0.16904    0.68467    0.58266    1.000
    Si1013   Si       0.19003    0.68572    0.54210    1.000
    N1014    N        0.17267    0.69027    0.50182    1.000
    Si1015   Si       0.16637    0.71409    0.61582    1.000
    N1016    N        0.08273    0.67841    0.68243    1.000
    Si1017   Si       0.08099    0.69825    0.72077    1.000
    N1018    N        0.99721    0.69968    0.70039    1.000
    Si1019   Si       0.05089    0.65499    0.66295    1.000
    N1020    N        0.17775    0.70639    0.70697    1.000
    N1021    N        0.14119    0.70363    0.65270    1.000
    N1022    N        0.20433    0.66298    0.65481    1.000
    Si1023   Si       0.11818    0.66239    0.66022    1.000
    Si1024   Si       0.23355    0.69302    0.65076    1.000
    Si1025   Si       0.18000    0.66569    0.69108    1.000
    Si1026   Si       0.23959    0.67478    0.72641    1.000
    N1027    N        0.06075    0.67723    0.80900    1.000
    N1028    N        0.99975    0.68088    0.81371    1.000
    Si1029   Si       0.99877    0.66867    0.86017    1.000
    Si1030   Si       0.09624    0.66164    0.79104    1.000
    Si1031   Si       0.03912    0.71041    0.82846    1.000
    N1032    N        0.10149    0.66890    0.74879    1.000
    N1033    N        0.01213    0.71116    0.86568    1.000
    N1034    N        0.22650    0.69969    0.75867    1.000
    Si1035   Si       0.22219    0.67823    0.79643    1.000
    N1036    N        0.13530    0.67149    0.80916    1.000
    N1037    N        0.19871    0.70067    0.82730    1.000
    Si1038   Si       0.15662    0.71069    0.81348    1.000
    N1039    N        0.06778    0.68938    0.91276    1.000
    Si1040   Si       0.03670    0.69382    0.96821    1.000
    Si1041   Si       0.09703    0.71073    0.93706    1.000
    N1042    N        0.21129    0.66186    0.96596    1.000
    Si1043   Si       0.22817    0.70058    0.97605    1.000
    Si1044   Si       0.13746    0.65742    0.95841    1.000
    N1045    N        0.23076    0.67150    0.89545    1.000
    N1046    N        0.13558    0.69837    0.94480    1.000
    N1047    N        0.08315    0.72961    0.03917    1.000
    Si1048   Si       0.11020    0.76378    0.04137    1.000
    Si1049   Si       0.05689    0.73666    0.00552    1.000
    Si1050   Si       0.98998    0.73217    0.02996    1.000
    N1051    N        0.20567    0.72977    0.07391    1.000
    Si1052   Si       0.19046    0.74435    0.11212    1.000
    Si1053   Si       0.18328    0.76147    0.05566    1.000
    N1054    N        0.15245    0.75821    0.02703    1.000
    Si1055   Si       0.23503    0.71261    0.04913    1.000
    N1056    N        0.04354    0.75766    0.14379    1.000
    Si1057   Si       0.07761    0.74744    0.16848    1.000
    N1058    N        0.09504    0.76181    0.20457    1.000
    N1059    N        0.11137    0.75439    0.14122    1.000
    Si1060   Si       0.04182    0.71474    0.13143    1.000
    Si1061   Si       0.17238    0.71517    0.16992    1.000
    N1062    N        0.16298    0.71589    0.12719    1.000
    N1063    N        0.22249    0.75777    0.13948    1.000
    N1064    N        0.23235    0.76125    0.21919    1.000
    N1065    N        0.16770    0.75233    0.19262    1.000
    Si1066   Si       0.13132    0.73650    0.20962    1.000
    N1067    N        0.05838    0.73471    0.26657    1.000
    Si1068   Si       0.07850    0.76323    0.29060    1.000
    N1069    N        0.00458    0.72277    0.34188    1.000
    Si1070   Si       0.00757    0.75986    0.31911    1.000
    N1071    N        0.99086    0.75021    0.27936    1.000
    N1072    N        0.11136    0.73737    0.30292    1.000
    Si1073   Si       0.02108    0.74524    0.24776    1.000
    Si1074   Si       0.13251    0.74919    0.33974    1.000
    Si1075   Si       0.15020    0.73086    0.27999    1.000
    Si1076   Si       0.20929    0.76183    0.33290    1.000
    N1077    N        0.16936    0.75656    0.31518    1.000
    N1078    N        0.22881    0.72613    0.31615    1.000
    N1079    N        0.17141    0.76013    0.25469    1.000
    N1080    N        0.06823    0.73806    0.37336    1.000
    Si1081   Si       0.02751    0.72352    0.37868    1.000
    N1082    N        0.00547    0.75147    0.40573    1.000
    Si1083   Si       0.00586    0.74144    0.44888    1.000
    Si1084   Si       0.08512    0.74062    0.47685    1.000
    N1085    N        0.04922    0.72710    0.45568    1.000
    N1086    N        0.21603    0.76599    0.37566    1.000
    N1087    N        0.23104    0.71996    0.48159    1.000
    Si1088   Si       0.21629    0.77142    0.45810    1.000
    Si1089   Si       0.13871    0.74962    0.44268    1.000
    N1090    N        0.12178    0.71773    0.46823    1.000
    N1091    N        0.14332    0.77119    0.40246    1.000
    N1092    N        0.18272    0.74309    0.44264    1.000
    Si1093   Si       0.18554    0.77251    0.40632    1.000
    N1094    N        0.08113    0.74089    0.51956    1.000
    N1095    N        0.01155    0.73356    0.59150    1.000
    Si1096   Si       0.10574    0.76238    0.60121    1.000
    N1097    N        0.08308    0.72890    0.58717    1.000
    N1098    N        0.99904    0.72891    0.50597    1.000
    Si1099   Si       0.01254    0.71811    0.54620    1.000
    Si1100   Si       0.04676    0.71577    0.61168    1.000
    N1101    N        0.02513    0.77696    0.54320    1.000
    Si1102   Si       0.22855    0.73974    0.58898    1.000
    Si1103   Si       0.22619    0.74729    0.51719    1.000
    N1104    N        0.14736    0.75122    0.60399    1.000
    N1105    N        0.21361    0.72214    0.55074    1.000
    N1106    N        0.03890    0.73306    0.65123    1.000
    Si1107   Si       0.00459    0.72638    0.73322    1.000
    N1108    N        0.00314    0.76479    0.71503    1.000
    Si1109   Si       0.99929    0.72045    0.66153    1.000
    N1110    N        0.04813    0.71853    0.74205    1.000
    N1111    N        0.11326    0.72734    0.71999    1.000
    N1112    N        0.15835    0.76898    0.68431    1.000
    Si1113   Si       0.14562    0.72703    0.68949    1.000
    N1114    N        0.20318    0.76554    0.73649    1.000
    N1115    N        0.21186    0.71880    0.62235    1.000
    N1116    N        0.02302    0.74076    0.80216    1.000
    N1117    N        0.09127    0.74398    0.79159    1.000
    Si1118   Si       0.05417    0.74729    0.77272    1.000
    Si1119   Si       0.09792    0.74732    0.83430    1.000
    N1120    N        0.07067    0.72207    0.85335    1.000
    N1121    N        0.13687    0.73552    0.84255    1.000
    Si1122   Si       0.22135    0.73680    0.83558    1.000
    Si1123   Si       0.12169    0.74230    0.76048    1.000
    N1124    N        0.16055    0.72675    0.77318    1.000
    Si1125   Si       0.16561    0.75622    0.86769    1.000
    Si1126   Si       0.19246    0.72398    0.74455    1.000
    N1127    N        0.19491    0.76985    0.83849    1.000
    N1128    N        0.01255    0.71852    0.94351    1.000
    Si1129   Si       0.04597    0.72066    0.89213    1.000
    N1130    N        0.04476    0.76200    0.90890    1.000
    Si1131   Si       0.02145    0.76158    0.94552    1.000
    N1132    N        0.11154    0.74314    0.91082    1.000
    N1133    N        0.07493    0.71625    0.97339    1.000
    Si1134   Si       0.15054    0.73541    0.92950    1.000
    N1135    N        0.23225    0.72674    0.94258    1.000
    Si1136   Si       0.21899    0.71396    0.90190    1.000
    N1137    N        0.17898    0.72886    0.89814    1.000
    N1138    N        0.15459    0.77190    0.95306    1.000
    Si1139   Si       0.06253    0.81083    0.07346    1.000
    Si1140   Si       0.01329    0.79698    0.01492    1.000
    N1141    N        0.02609    0.80367    0.09540    1.000
    N1142    N        0.04934    0.81492    0.03220    1.000
    N1143    N        0.09822    0.78465    0.07832    1.000
    N1144    N        0.10402    0.78723    0.00399    1.000
    N1145    N        0.99247    0.77235    0.04225    1.000
    Si1146   Si       0.17060    0.81941    0.09880    1.000
    N1147    N        0.21005    0.79099    0.03988    1.000
    Si1148   Si       0.12490    0.78277    0.11191    1.000
    N1149    N        0.16435    0.77462    0.09229    1.000
    Si1150   Si       0.18715    0.82591    0.02995    1.000
    Si1151   Si       0.99425    0.79498    0.20168    1.000
    Si1152   Si       0.07396    0.79300    0.22444    1.000
    N1153    N        0.00401    0.81333    0.16401    1.000
    Si1154   Si       0.01223    0.78460    0.13253    1.000
    N1155    N        0.08224    0.82781    0.20236    1.000
    N1156    N        0.03167    0.78041    0.22053    1.000
    Si1157   Si       0.16697    0.82997    0.16041    1.000
    N1158    N        0.13387    0.82278    0.12760    1.000
    Si1159   Si       0.22186    0.79787    0.15678    1.000
    N1160    N        0.19216    0.81196    0.19028    1.000
    Si1161   Si       0.19188    0.77866    0.22160    1.000
    N1162    N        0.19773    0.82285    0.13073    1.000
    N1163    N        0.08590    0.79801    0.26511    1.000
    Si1164   Si       0.07186    0.77763    0.35830    1.000
    N1165    N        0.02677    0.82605    0.27830    1.000
    N1166    N        0.04938    0.77155    0.32192    1.000
    N1167    N        0.11354    0.78743    0.34615    1.000
    Si1168   Si       0.23257    0.82720    0.28427    1.000
    N1169    N        0.21348    0.80002    0.31364    1.000
    Si1170   Si       0.17943    0.79152    0.28620    1.000
    N1171    N        0.15131    0.82379    0.29306    1.000
    N1172    N        0.20469    0.81408    0.25187    1.000
    Si1173   Si       0.12465    0.82637    0.32792    1.000
    N1174    N        0.07638    0.80337    0.39290    1.000
    N1175    N        0.99216    0.77943    0.46553    1.000
    N1176    N        0.10525    0.77551    0.45816    1.000
    Si1177   Si       0.10931    0.81971    0.46297    1.000
    N1178    N        0.19951    0.80431    0.43249    1.000
    Si1179   Si       0.12118    0.80703    0.38863    1.000
    N1180    N        0.13100    0.83312    0.42542    1.000
    N1181    N        0.13950    0.82256    0.49583    1.000
    N1182    N        0.09449    0.79647    0.57552    1.000
    N1183    N        0.07761    0.81361    0.51841    1.000
    Si1184   Si       0.06716    0.82228    0.59764    1.000
    Si1185   Si       0.06971    0.77630    0.54185    1.000
    N1186    N        0.04140    0.79026    0.61494    1.000
    Si1187   Si       0.01209    0.77790    0.58569    1.000
    N1188    N        0.00172    0.82688    0.51096    1.000
    Si1189   Si       0.99414    0.77761    0.50903    1.000
    Si1190   Si       0.11807    0.82251    0.53849    1.000
    Si1191   Si       0.16848    0.78668    0.59124    1.000
    N1192    N        0.15487    0.80125    0.55344    1.000
    Si1193   Si       0.17656    0.80902    0.51655    1.000
    N1194    N        0.21235    0.77974    0.59524    1.000
    N1195    N        0.20142    0.77792    0.49916    1.000
    Si1196   Si       0.23374    0.81469    0.60996    1.000
    Si1197   Si       0.03037    0.79668    0.72039    1.000
    N1198    N        0.05799    0.79973    0.68655    1.000
    N1199    N        0.00768    0.82748    0.73780    1.000
    Si1200   Si       0.05694    0.77275    0.65296    1.000
    N1201    N        0.09953    0.77310    0.64243    1.000
    Si1202   Si       0.23744    0.78972    0.72873    1.000
    N1203    N        0.18026    0.82623    0.72313    1.000
    Si1204   Si       0.16650    0.78569    0.72372    1.000
    N1205    N        0.12316    0.82896    0.68004    1.000
    N1206    N        0.15653    0.81411    0.62238    1.000
    Si1207   Si       0.13683    0.79457    0.65536    1.000
    N1208    N        0.08182    0.78541    0.85495    1.000
    Si1209   Si       0.09736    0.80947    0.76008    1.000
    Si1210   Si       0.06562    0.82040    0.83574    1.000
    N1211    N        0.09521    0.82181    0.80063    1.000
    N1212    N        0.05807    0.78608    0.75278    1.000
    N1213    N        0.02409    0.82356    0.81468    1.000
    N1214    N        0.99384    0.77524    0.86296    1.000
    Si1215   Si       0.98883    0.80768    0.83515    1.000
    Si1216   Si       0.19533    0.81332    0.83602    1.000
    N1217    N        0.21982    0.82064    0.80032    1.000
    N1218    N        0.13321    0.78576    0.75204    1.000
    N1219    N        0.99572    0.79559    0.93414    1.000
    Si1220   Si       0.01737    0.79399    0.89360    1.000
    N1221    N        0.09876    0.80573    0.92863    1.000
    Si1222   Si       0.08585    0.77520    0.89689    1.000
    Si1223   Si       0.06739    0.80732    0.99379    1.000
    N1224    N        0.03917    0.77250    0.98498    1.000
    N1225    N        0.99194    0.83004    0.99755    1.000
    Si1226   Si       0.14613    0.78341    0.99272    1.000
    Si1227   Si       0.14127    0.80238    0.92684    1.000
    N1228    N        0.15505    0.79449    0.88529    1.000
    N1229    N        0.16551    0.82218    0.99378    1.000
    N1230    N        0.08272    0.84863    0.08067    1.000
    Si1231   Si       0.07395    0.88405    0.05713    1.000
    Si1232   Si       0.10730    0.85681    0.11473    1.000
    N1233    N        0.16080    0.83852    0.06278    1.000
    N1234    N        0.21640    0.85651    0.03004    1.000
    Si1235   Si       0.14796    0.88115    0.06170    1.000
    N1236    N        0.21467    0.87757    0.09836    1.000
    N1237    N        0.01114    0.87433    0.12538    1.000
    N1238    N        0.07940    0.87123    0.14267    1.000
    Si1239   Si       0.07928    0.86730    0.18521    1.000
    N1240    N        0.03609    0.87922    0.19008    1.000
    Si1241   Si       0.00776    0.85737    0.16514    1.000
    N1242    N        0.10921    0.89008    0.20719    1.000
    Si1243   Si       0.20455    0.84362    0.22174    1.000
    N1244    N        0.16970    0.86764    0.23546    1.000
    Si1245   Si       0.15168    0.89021    0.20269    1.000
    N1246    N        0.16914    0.87287    0.16664    1.000
    N1247    N        0.23756    0.86654    0.20643    1.000
    Si1248   Si       0.19920    0.88964    0.13882    1.000
    Si1249   Si       0.06497    0.87465    0.34229    1.000
    N1250    N        0.07260    0.87905    0.27077    1.000
    N1251    N        0.08523    0.84122    0.32050    1.000
    N1252    N        0.99632    0.88248    0.25816    1.000
    N1253    N        0.02649    0.88393    0.32233    1.000
    Si1254   Si       0.06800    0.83450    0.28023    1.000
    Si1255   Si       0.99060    0.89148    0.34600    1.000
    N1256    N        0.21415    0.86665    0.28878    1.000
    Si1257   Si       0.16944    0.86025    0.27786    1.000
    N1258    N        0.14077    0.84196    0.36631    1.000
    N1259    N        0.14573    0.89041    0.29841    1.000
    Si1260   Si       0.23146    0.89302    0.31692    1.000
    N1261    N        0.06103    0.86826    0.38381    1.000
    Si1262   Si       0.06672    0.87686    0.46756    1.000
    N1263    N        0.06923    0.83803    0.45160    1.000
    Si1264   Si       0.05354    0.83407    0.41254    1.000
    N1265    N        0.10829    0.88876    0.48067    1.000
    N1266    N        0.01199    0.82852    0.41830    1.000
    Si1267   Si       0.20524    0.84746    0.43684    1.000
    N1268    N        0.18121    0.87381    0.46403    1.000
    N1269    N        0.19353    0.86927    0.40037    1.000
    Si1270   Si       0.15122    0.86371    0.40266    1.000
    N1271    N        0.04189    0.84473    0.56947    1.000
    N1272    N        0.05258    0.87718    0.50843    1.000
    Si1273   Si       0.01838    0.87660    0.58887    1.000
    Si1274   Si       0.04094    0.83683    0.52641    1.000
    N1275    N        0.11561    0.86484    0.54769    1.000
    Si1276   Si       0.21587    0.86132    0.56220    1.000
    N1277    N        0.17871    0.86639    0.58590    1.000
    N1278    N        0.19953    0.84240    0.52655    1.000
    Si1279   Si       0.19968    0.87861    0.50267    1.000
    Si1280   Si       0.15151    0.88694    0.55889    1.000
    N1281    N        0.23984    0.88978    0.50095    1.000
    Si1282   Si       0.06591    0.88823    0.64861    1.000
    Si1283   Si       0.07536    0.88010    0.73322    1.000
    N1284    N        0.06745    0.87270    0.69161    1.000
    N1285    N        0.07588    0.84894    0.63112    1.000
    N1286    N        0.10504    0.84532    0.73893    1.000
    Si1287   Si       0.08081    0.83443    0.67334    1.000
    N1288    N        0.21598    0.83970    0.64208    1.000
    Si1289   Si       0.17696    0.85354    0.62679    1.000
    Si1290   Si       0.14160    0.84671    0.71488    1.000
    N1291    N        0.16475    0.88314    0.71978    1.000
    N1292    N        0.22329    0.88754    0.69490    1.000
    Si1293   Si       0.20430    0.86320    0.72732    1.000
    N1294    N        0.08840    0.85450    0.85233    1.000
    Si1295   Si       0.01636    0.84665    0.77673    1.000
    N1296    N        0.04355    0.88089    0.76390    1.000
    Si1297   Si       0.11968    0.85001    0.82254    1.000
    N1298    N        0.22162    0.88591    0.76197    1.000
    Si1299   Si       0.23561    0.86202    0.79495    1.000
    Si1300   Si       0.21618    0.87856    0.86879    1.000
    N1301    N        0.15634    0.83320    0.83404    1.000
    N1302    N        0.17080    0.88629    0.87136    1.000
    N1303    N        0.23078    0.88896    0.82915    1.000
    Si1304   Si       0.01142    0.86152    0.89389    1.000
    N1305    N        0.09011    0.87657    0.91941    1.000
    N1306    N        0.06194    0.84641    0.97068    1.000
    Si1307   Si       0.07150    0.83908    0.93006    1.000
    N1308    N        0.99820    0.86531    0.93379    1.000
    Si1309   Si       0.05551    0.88791    0.98127    1.000
    N1310    N        0.04143    0.83029    0.89941    1.000
    N1311    N        0.20896    0.83496    0.87022    1.000
    N1312    N        0.21506    0.86216    0.96212    1.000
    Si1313   Si       0.17277    0.85347    0.96327    1.000
    N1314    N        0.16047    0.84274    0.92380    1.000
    Si1315   Si       0.16519    0.84119    0.87993    1.000
    N1316    N        0.05846    0.91189    0.08616    1.000
    Si1317   Si       0.00696    0.90674    0.03243    1.000
    Si1318   Si       0.10649    0.93169    0.01739    1.000
    N1319    N        0.00899    0.94817    0.04516    1.000
    N1320    N        0.04572    0.89088    0.02341    1.000
    N1321    N        0.11207    0.89559    0.04035    1.000
    N1322    N        0.17956    0.90718    0.04929    1.000
    Si1323   Si       0.14564    0.93194    0.11446    1.000
    Si1324   Si       0.21801    0.88837    0.05825    1.000
    N1325    N        0.13602    0.89035    0.10308    1.000
    Si1326   Si       0.04706    0.89661    0.12488    1.000
    N1327    N        0.03886    0.93210    0.14918    1.000
    Si1328   Si       0.10636    0.92960    0.22419    1.000
    Si1329   Si       0.03745    0.92353    0.19223    1.000
    N1330    N        0.99706    0.93568    0.20452    1.000
    N1331    N        0.06950    0.94541    0.21199    1.000
    N1332    N        0.18458    0.93045    0.13139    1.000
    N1333    N        0.22035    0.94204    0.24051    1.000
    N1334    N        0.15095    0.93347    0.21081    1.000
    Si1335   Si       0.22091    0.94709    0.14316    1.000
    N1336    N        0.08696    0.90913    0.32782    1.000
    N1337    N        0.01800    0.93832    0.27314    1.000
    N1338    N        0.10648    0.93947    0.26741    1.000
    Si1339   Si       0.09939    0.94146    0.35232    1.000
    Si1340   Si       0.10367    0.90152    0.28920    1.000
    Si1341   Si       0.03208    0.89661    0.28181    1.000
    N1342    N        0.19876    0.90781    0.34472    1.000
    Si1343   Si       0.16401    0.92227    0.32476    1.000
    N1344    N        0.14161    0.93831    0.35831    1.000
    N1345    N        0.00482    0.91122    0.38208    1.000
    N1346    N        0.04735    0.90414    0.44193    1.000
    Si1347   Si       0.04530    0.90677    0.39865    1.000
    N1348    N        0.07572    0.93749    0.38918    1.000
    Si1349   Si       0.03353    0.94336    0.45579    1.000
    N1350    N        0.19331    0.95014    0.41505    1.000
    N1351    N        0.15465    0.93822    0.47150    1.000
    Si1352   Si       0.14389    0.89815    0.46135    1.000
    N1353    N        0.13884    0.90132    0.41737    1.000
    Si1354   Si       0.15388    0.94011    0.39948    1.000
    Si1355   Si       0.22163    0.89340    0.37836    1.000
    N1356    N        0.01566    0.90907    0.56105    1.000
    Si1357   Si       0.01665    0.90349    0.51793    1.000
    N1358    N        0.09019    0.93482    0.53466    1.000
    N1359    N        0.03041    0.93978    0.49896    1.000
    Si1360   Si       0.09317    0.89307    0.52128    1.000
    N1361    N        0.17724    0.90538    0.52627    1.000
    N1362    N        0.13573    0.91841    0.58255    1.000
    N1363    N        0.23407    0.90179    0.56559    1.000
    Si1364   Si       0.17762    0.94567    0.50662    1.000
    N1365    N        0.21166    0.95523    0.60605    1.000
    N1366    N        0.02909    0.89754    0.62735    1.000
    Si1367   Si       0.00409    0.92705    0.64521    1.000
    N1368    N        0.09941    0.91472    0.64613    1.000
    N1369    N        0.02341    0.94457    0.67970    1.000
    N1370    N        0.09835    0.91516    0.74417    1.000
    N1371    N        0.16432    0.89112    0.64870    1.000
    Si1372   Si       0.11593    0.94953    0.66874    1.000
    N1373    N        0.14399    0.93864    0.69842    1.000
    Si1374   Si       0.14083    0.91791    0.73521    1.000
    Si1375   Si       0.18243    0.90890    0.68315    1.000
    Si1376   Si       0.13817    0.91533    0.62521    1.000
    N1377    N        0.20254    0.94769    0.67174    1.000
    Si1378   Si       0.00455    0.91720    0.85983    1.000
    Si1379   Si       0.02329    0.91338    0.78536    1.000
    N1380    N        0.99918    0.90676    0.81944    1.000
    N1381    N        0.05709    0.93693    0.80117    1.000
    N1382    N        0.99308    0.93919    0.76592    1.000
    Si1383   Si       0.08115    0.94712    0.76657    1.000
    N1384    N        0.10802    0.92221    0.87148    1.000
    Si1385   Si       0.21224    0.93000    0.76613    1.000
    N1386    N        0.16841    0.93193    0.76527    1.000
    Si1387   Si       0.14416    0.91265    0.84664    1.000
    N1388    N        0.12798    0.89188    0.81201    1.000
    Si1389   Si       0.07886    0.88843    0.87716    1.000
    N1390    N        0.09035    0.91660    0.97650    1.000
    N1391    N        0.03104    0.91723    0.96164    1.000
    N1392    N        0.03697    0.89368    0.87654    1.000
    Si1393   Si       0.06227    0.94883    0.95773    1.000
    Si1394   Si       0.98878    0.90203    0.95632    1.000
    N1395    N        0.15283    0.89100    0.96671    1.000
    Si1396   Si       0.23867    0.94458    0.89568    1.000
    N1397    N        0.13563    0.94036    0.93282    1.000
    Si1398   Si       0.15924    0.93356    0.97151    1.000
    N1399    N        0.23700    0.90030    0.90002    1.000
    Si1400   Si       0.11636    0.90249    0.94358    1.000
    N1401    N        0.03991    0.97847    0.09729    1.000
    N1402    N        0.07744    0.95828    0.03621    1.000
    Si1403   Si       0.06624    0.99688    0.01893    1.000
    Si1404   Si       0.99391    0.98615    0.03054    1.000
    Si1405   Si       0.04625    0.94782    0.06598    1.000
    N1406    N        0.20393    0.97298    0.04032    1.000
    N1407    N        0.14373    0.95765    0.07612    1.000
    Si1408   Si       0.14538    0.99994    0.08082    1.000
    Si1409   Si       0.16930    0.94690    0.04333    1.000
    N1410    N        0.14508    0.95085    0.00754    1.000
    N1411    N        0.17740    0.00534    0.10996    1.000
    Si1412   Si       0.22142    0.00834    0.10227    1.000
    N1413    N        0.06995    0.00002    0.15528    1.000
    N1414    N        0.99733    0.98540    0.14820    1.000
    Si1415   Si       0.06102    0.98515    0.22630    1.000
    Si1416   Si       0.03870    0.97421    0.13953    1.000
    Si1417   Si       0.11249    0.99629    0.14370    1.000
    N1418    N        0.21787    0.97031    0.18107    1.000
    Si1419   Si       0.18945    0.95887    0.21448    1.000
    N1420    N        0.17140    0.99015    0.23720    1.000
    N1421    N        0.11960    0.95304    0.13970    1.000
    N1422    N        0.08645    0.97681    0.32971    1.000
    Si1423   Si       0.09009    0.97506    0.28717    1.000
    N1424    N        0.05513    0.99118    0.26868    1.000
    Si1425   Si       0.01458    0.98044    0.28461    1.000
    N1426    N        0.00023    0.98082    0.32502    1.000
    Si1427   Si       0.16168    0.99024    0.27946    1.000
    N1428    N        0.23321    0.99448    0.28322    1.000
    Si1429   Si       0.21990    0.95482    0.28152    1.000
    N1430    N        0.11948    0.00384    0.27501    1.000
    N1431    N        0.17773    0.95380    0.29617    1.000
    Si1432   Si       0.08944    0.96864    0.41551    1.000
    N1433    N        0.06303    0.97532    0.44820    1.000
    N1434    N        0.99840    0.95595    0.43197    1.000
    Si1435   Si       0.99210    0.99885    0.43079    1.000
    Si1436   Si       0.17263    0.97134    0.44741    1.000
    N1437    N        0.20523    0.97015    0.48146    1.000
    Si1438   Si       0.23553    0.95848    0.40861    1.000
    N1439    N        0.13307    0.97239    0.41678    1.000
    N1440    N        0.22986    0.00128    0.39376    1.000
    N1441    N        0.04021    0.97388    0.56689    1.000
    Si1442   Si       0.05742    0.96081    0.52721    1.000
    Si1443   Si       0.06809    0.99957    0.59078    1.000
    N1444    N        0.06674    0.00123    0.51140    1.000
    N1445    N        0.11005    0.98712    0.58565    1.000
    N1446    N        0.99057    0.95293    0.61330    1.000
    Si1447   Si       0.00307    0.94998    0.57296    1.000
    N1448    N        0.15773    0.97191    0.53608    1.000
    Si1449   Si       0.12355    0.95412    0.55841    1.000
    Si1450   Si       0.14052    0.00927    0.61063    1.000
    N1451    N        0.08743    0.97924    0.67737    1.000
    N1452    N        0.04951    0.96475    0.74238    1.000
    Si1453   Si       0.04907    0.97037    0.70041    1.000
    N1454    N        0.99849    0.00647    0.74859    1.000
    N1455    N        0.19355    0.00955    0.71073    1.000
    Si1456   Si       0.21824    0.97380    0.70569    1.000
    Si1457   Si       0.18636    0.96643    0.63771    1.000
    N1458    N        0.14416    0.95867    0.63596    1.000
    N1459    N        0.17929    0.00971    0.63566    1.000
    Si1460   Si       0.04940    0.96715    0.83179    1.000
    N1461    N        0.07183    0.99121    0.86145    1.000
    N1462    N        0.01791    0.95889    0.86331    1.000
    N1463    N        0.02992    0.99594    0.80793    1.000
    Si1464   Si       0.01595    0.97355    0.76988    1.000
    N1465    N        0.11495    0.97168    0.77514    1.000
    N1466    N        0.15769    0.95268    0.83006    1.000
    N1467    N        0.18078    0.99706    0.77815    1.000
    Si1468   Si       0.17453    0.97804    0.86031    1.000
    Si1469   Si       0.21988    0.99151    0.80161    1.000
    Si1470   Si       0.15477    0.96447    0.79051    1.000
    N1471    N        0.22945    0.95016    0.79874    1.000
    N1472    N        0.20471    0.00312    0.84149    1.000
    N1473    N        0.01832    0.00761    0.91886    1.000
    N1474    N        0.05262    0.98599    0.97928    1.000
    Si1475   Si       0.04156    0.98236    0.89422    1.000
    N1476    N        0.07063    0.95887    0.91738    1.000
    Si1477   Si       0.10927    0.95707    0.89867    1.000
    N1478    N        0.14244    0.98806    0.88831    1.000
    N1479    N        0.19608    0.95655    0.88962    1.000
    Si1480   Si       0.17190    0.96760    0.92381    1.000
    N1481    N        0.19623    0.95067    0.95698    1.000
    N1482    N        0.27036    0.03935    0.02210    1.000
    N1483    N        0.32816    0.03533    0.05909    1.000
    Si1484   Si       0.31635    0.03629    0.10183    1.000
    N1485    N        0.27718    0.05366    0.10144    1.000
    Si1486   Si       0.25873    0.05634    0.06155    1.000
    N1487    N        0.35660    0.05746    0.00112    1.000
    Si1488   Si       0.30169    0.01177    0.03345    1.000
    Si1489   Si       0.35725    0.06485    0.04530    1.000
    Si1490   Si       0.41759    0.03327    0.02144    1.000
    Si1491   Si       0.42527    0.03827    0.08249    1.000
    N1492    N        0.39733    0.05452    0.05232    1.000
    N1493    N        0.44455    0.06134    0.00191    1.000
    N1494    N        0.34887    0.05818    0.12238    1.000
    Si1495   Si       0.23843    0.02108    0.18685    1.000
    N1496    N        0.27259    0.05320    0.17726    1.000
    Si1497   Si       0.25551    0.06157    0.13770    1.000
    N1498    N        0.41266    0.02768    0.12136    1.000
    Si1499   Si       0.38051    0.03866    0.14921    1.000
    N1500    N        0.46109    0.06802    0.23133    1.000
    N1501    N        0.44691    0.03141    0.17937    1.000
    Si1502   Si       0.44025    0.03097    0.22074    1.000
    N1503    N        0.48716    0.02350    0.11992    1.000
    Si1504   Si       0.45135    0.01316    0.14147    1.000
    N1505    N        0.28691    0.04458    0.26743    1.000
    N1506    N        0.34110    0.02540    0.34150    1.000
    Si1507   Si       0.32851    0.05041    0.25968    1.000
    N1508    N        0.35178    0.01360    0.26151    1.000
    Si1509   Si       0.25812    0.01915    0.36444    1.000
    Si1510   Si       0.34174    0.06743    0.33294    1.000
    N1511    N        0.45228    0.02759    0.34080    1.000
    N1512    N        0.41356    0.05168    0.28983    1.000
    Si1513   Si       0.45684    0.05056    0.30585    1.000
    Si1514   Si       0.39361    0.01516    0.27633    1.000
    Si1515   Si       0.48582    0.03365    0.36720    1.000
    Si1516   Si       0.33942    0.02807    0.43608    1.000
    N1517    N        0.28083    0.04156    0.39442    1.000
    N1518    N        0.30264    0.03127    0.45625    1.000
    Si1519   Si       0.26999    0.01677    0.42850    1.000
    N1520    N        0.34778    0.06181    0.40749    1.000
    Si1521   Si       0.38486    0.05772    0.38838    1.000
    Si1522   Si       0.41122    0.05228    0.45143    1.000
    N1523    N        0.43464    0.01519    0.45808    1.000
    N1524    N        0.39612    0.01757    0.37730    1.000
    N1525    N        0.37308    0.02938    0.46361    1.000
    Si1526   Si       0.47588    0.01732    0.44457    1.000
    N1527    N        0.47979    0.00716    0.40273    1.000
    N1528    N        0.31749    0.03965    0.58079    1.000
    N1529    N        0.33364    0.05526    0.51565    1.000
    Si1530   Si       0.29484    0.04060    0.49816    1.000
    Si1531   Si       0.24003    0.03598    0.53110    1.000
    N1532    N        0.26238    0.06778    0.51248    1.000
    Si1533   Si       0.30411    0.05648    0.62033    1.000
    Si1534   Si       0.37371    0.04985    0.50197    1.000
    N1535    N        0.40578    0.03721    0.52982    1.000
    N1536    N        0.47154    0.04768    0.58582    1.000
    N1537    N        0.47703    0.05620    0.51816    1.000
    Si1538   Si       0.43521    0.06628    0.52106    1.000
    Si1539   Si       0.30779    0.06560    0.72996    1.000
    N1540    N        0.27202    0.05660    0.71072    1.000
    Si1541   Si       0.26308    0.03030    0.67806    1.000
    N1542    N        0.29856    0.02725    0.65189    1.000
    N1543    N        0.33778    0.05279    0.70256    1.000
    Si1544   Si       0.33381    0.01964    0.67468    1.000
    Si1545   Si       0.47049    0.02206    0.62314    1.000
    N1546    N        0.41116    0.05033    0.68836    1.000
    Si1547   Si       0.41293    0.00847    0.67066    1.000
    N1548    N        0.47566    0.05022    0.65754    1.000
    N1549    N        0.48191    0.03545    0.72528    1.000
    N1550    N        0.30292    0.04696    0.83321    1.000
    Si1551   Si       0.28546    0.04202    0.79420    1.000
    N1552    N        0.31168    0.03220    0.76106    1.000
    N1553    N        0.24639    0.02407    0.79388    1.000
    Si1554   Si       0.33706    0.02130    0.83706    1.000
    Si1555   Si       0.28196    0.06406    0.86781    1.000
    Si1556   Si       0.38553    0.03117    0.77396    1.000
    N1557    N        0.37063    0.03378    0.81355    1.000
    N1558    N        0.42715    0.02240    0.76775    1.000
    Si1559   Si       0.45936    0.05130    0.75902    1.000
    Si1560   Si       0.39383    0.06168    0.83907    1.000
    N1561    N        0.42354    0.03818    0.86386    1.000
    N1562    N        0.47599    0.05967    0.79786    1.000
    N1563    N        0.27350    0.03790    0.95137    1.000
    N1564    N        0.25118    0.03860    0.88425    1.000
    Si1565   Si       0.25067    0.02430    0.98664    1.000
    N1566    N        0.34793    0.02547    0.94319    1.000
    Si1567   Si       0.27276    0.01154    0.91217    1.000
    Si1568   Si       0.35741    0.01717    0.98419    1.000
    Si1569   Si       0.35400    0.06406    0.89493    1.000
    N1570    N        0.35830    0.02353    0.87589    1.000
    Si1571   Si       0.45703    0.05228    0.88809    1.000
    Si1572   Si       0.46488    0.04921    0.96375    1.000
    N1573    N        0.48694    0.02204    0.89388    1.000
    N1574    N        0.47242    0.00694    0.96937    1.000
    N1575    N        0.35254    0.10304    0.06635    1.000
    N1576    N        0.24977    0.09965    0.05449    1.000
    Si1577   Si       0.36016    0.10034    0.10862    1.000
    Si1578   Si       0.43587    0.10651    0.08842    1.000
    Si1579   Si       0.43325    0.10389    0.00538    1.000
    N1580    N        0.42890    0.12065    0.04669    1.000
    N1581    N        0.40146    0.10555    0.11688    1.000
    N1582    N        0.45637    0.06814    0.08311    1.000
    N1583    N        0.26464    0.09997    0.22850    1.000
    Si1584   Si       0.29274    0.08239    0.20034    1.000
    N1585    N        0.29880    0.11487    0.17312    1.000
    N1586    N        0.33197    0.07438    0.22285    1.000
    N1587    N        0.38996    0.06838    0.17736    1.000
    N1588    N        0.43694    0.12235    0.18590    1.000
    N1589    N        0.37089    0.12543    0.18575    1.000
    Si1590   Si       0.43987    0.10398    0.22687    1.000
    Si1591   Si       0.37123    0.08881    0.20986    1.000
    Si1592   Si       0.40408    0.10764    0.16194    1.000
    N1593    N        0.39879    0.09342    0.24215    1.000
    N1594    N        0.30818    0.08823    0.35201    1.000
    N1595    N        0.26499    0.11260    0.29800    1.000
    Si1596   Si       0.26121    0.08039    0.26765    1.000
    Si1597   Si       0.27720    0.11584    0.33934    1.000
    N1598    N        0.35012    0.07503    0.29023    1.000
    N1599    N        0.37775    0.08211    0.35226    1.000
    N1600    N        0.46456    0.09260    0.31337    1.000
    Si1601   Si       0.39040    0.08907    0.28391    1.000
    Si1602   Si       0.38922    0.12229    0.35127    1.000
    Si1603   Si       0.30708    0.07638    0.39490    1.000
    N1604    N        0.29705    0.10946    0.41856    1.000
    N1605    N        0.30327    0.12269    0.49104    1.000
    N1606    N        0.48652    0.07477    0.37982    1.000
    Si1607   Si       0.43082    0.11479    0.41389    1.000
    N1608    N        0.41035    0.07805    0.48746    1.000
    N1609    N        0.46976    0.11968    0.43307    1.000
    N1610    N        0.41403    0.07408    0.41382    1.000
    Si1611   Si       0.40533    0.12237    0.48088    1.000
    Si1612   Si       0.27655    0.10703    0.52105    1.000
    N1613    N        0.29586    0.10274    0.56025    1.000
    Si1614   Si       0.27907    0.11941    0.59692    1.000
    Si1615   Si       0.32859    0.07365    0.55539    1.000
    N1616    N        0.26986    0.08382    0.62098    1.000
    N1617    N        0.36705    0.09091    0.57038    1.000
    N1618    N        0.43103    0.09772    0.55241    1.000
    Si1619   Si       0.44296    0.08051    0.59174    1.000
    Si1620   Si       0.37697    0.08927    0.61255    1.000
    N1621    N        0.47137    0.10788    0.61042    1.000
    Si1622   Si       0.39155    0.12016    0.55037    1.000
    N1623    N        0.41471    0.07193    0.62224    1.000
    N1624    N        0.33759    0.08405    0.63143    1.000
    N1625    N        0.31530    0.10592    0.73789    1.000
    Si1626   Si       0.33556    0.12692    0.63830    1.000
    N1627    N        0.43898    0.11319    0.67392    1.000
    Si1628   Si       0.37786    0.06782    0.71013    1.000
    Si1629   Si       0.46098    0.11484    0.71484    1.000
    N1630    N        0.37288    0.10954    0.69860    1.000
    Si1631   Si       0.43798    0.07227    0.65904    1.000
    N1632    N        0.44409    0.08962    0.74586    1.000
    N1633    N        0.27053    0.10613    0.85957    1.000
    N1634    N        0.26993    0.08153    0.78123    1.000
    Si1635   Si       0.29857    0.11415    0.77802    1.000
    Si1636   Si       0.35227    0.12218    0.84347    1.000
    N1637    N        0.36590    0.08587    0.85859    1.000
    Si1638   Si       0.40901    0.09816    0.76862    1.000
    N1639    N        0.41579    0.08575    0.81039    1.000
    Si1640   Si       0.45667    0.09106    0.82078    1.000
    N1641    N        0.47422    0.08237    0.86139    1.000
    N1642    N        0.38106    0.06926    0.75232    1.000
    N1643    N        0.32104    0.10248    0.96572    1.000
    N1644    N        0.27253    0.11501    0.92442    1.000
    Si1645   Si       0.29302    0.07796    0.93926    1.000
    Si1646   Si       0.35936    0.08468    0.96747    1.000
    N1647    N        0.31152    0.06862    0.90080    1.000
    N1648    N        0.46630    0.12313    0.98641    1.000
    N1649    N        0.44273    0.06622    0.92794    1.000
    N1650    N        0.39822    0.10381    0.98000    1.000
    N1651    N        0.37489    0.08442    0.92536    1.000
    Si1652   Si       0.41361    0.09878    0.93653    1.000
    Si1653   Si       0.31295    0.16382    0.10689    1.000
    N1654    N        0.30418    0.14852    0.06795    1.000
    Si1655   Si       0.34315    0.14006    0.04908    1.000
    Si1656   Si       0.26951    0.13673    0.04632    1.000
    N1657    N        0.33853    0.15284    0.00987    1.000
    N1658    N        0.26846    0.14502    0.00451    1.000
    N1659    N        0.37903    0.16615    0.06224    1.000
    Si1660   Si       0.41878    0.16302    0.04642    1.000
    Si1661   Si       0.45926    0.17671    0.11030    1.000
    N1662    N        0.46697    0.13292    0.10786    1.000
    N1663    N        0.40999    0.17781    0.00757    1.000
    N1664    N        0.33994    0.13553    0.12493    1.000
    N1665    N        0.27644    0.16575    0.12803    1.000
    Si1666   Si       0.33428    0.13863    0.16647    1.000
    Si1667   Si       0.26411    0.13503    0.15596    1.000
    N1668    N        0.33347    0.17354    0.19349    1.000
    N1669    N        0.24426    0.15618    0.18753    1.000
    N1670    N        0.42971    0.18541    0.14230    1.000
    N1671    N        0.47544    0.17907    0.19102    1.000
    N1672    N        0.40694    0.18447    0.20826    1.000
    Si1673   Si       0.37175    0.16129    0.21248    1.000
    Si1674   Si       0.43582    0.16585    0.17901    1.000
    Si1675   Si       0.48015    0.16652    0.23450    1.000
    Si1676   Si       0.25177    0.15187    0.28505    1.000
    N1677    N        0.29254    0.15278    0.35356    1.000
    Si1678   Si       0.33318    0.16822    0.35400    1.000
    N1679    N        0.34765    0.17120    0.31344    1.000
    N1680    N        0.28547    0.17884    0.27754    1.000
    Si1681   Si       0.32911    0.17595    0.27258    1.000
    N1682    N        0.36161    0.15235    0.25602    1.000
    Si1683   Si       0.38338    0.16385    0.29184    1.000
    N1684    N        0.45268    0.16870    0.31286    1.000
    Si1685   Si       0.45448    0.16130    0.35710    1.000
    N1686    N        0.45418    0.13553    0.25262    1.000
    Si1687   Si       0.44582    0.13021    0.29532    1.000
    N1688    N        0.42633    0.12939    0.37239    1.000
    N1689    N        0.40062    0.12569    0.30683    1.000
    Si1690   Si       0.29574    0.13928    0.45036    1.000
    N1691    N        0.25924    0.16398    0.45332    1.000
    N1692    N        0.33669    0.15718    0.44915    1.000
    Si1693   Si       0.33924    0.15036    0.49310    1.000
    N1694    N        0.36209    0.14415    0.37595    1.000
    Si1695   Si       0.23421    0.16106    0.48973    1.000
    Si1696   Si       0.48069    0.13611    0.47233    1.000
    N1697    N        0.40027    0.13354    0.43881    1.000
    N1698    N        0.44357    0.14594    0.49091    1.000
    Si1699   Si       0.36820    0.15625    0.41783    1.000
    N1700    N        0.31131    0.14688    0.60804    1.000
    N1701    N        0.24504    0.13656    0.52343    1.000
    N1702    N        0.32673    0.18588    0.51264    1.000
    N1703    N        0.39438    0.15864    0.57060    1.000
    Si1704   Si       0.40127    0.16290    0.61406    1.000
    N1705    N        0.37446    0.13079    0.50919    1.000
    N1706    N        0.44358    0.16517    0.62066    1.000
    Si1707   Si       0.47503    0.18075    0.58958    1.000
    N1708    N        0.25275    0.15825    0.65512    1.000
    N1709    N        0.31949    0.14420    0.67504    1.000
    Si1710   Si       0.28866    0.17618    0.67316    1.000
    N1711    N        0.34426    0.16720    0.73701    1.000
    Si1712   Si       0.25710    0.17182    0.73971    1.000
    Si1713   Si       0.33679    0.13081    0.71251    1.000
    N1714    N        0.45168    0.15597    0.72778    1.000
    N1715    N        0.38065    0.13004    0.63426    1.000
    Si1716   Si       0.46383    0.13469    0.64354    1.000
    N1717    N        0.40040    0.17016    0.69099    1.000
    Si1718   Si       0.39921    0.13037    0.67455    1.000
    Si1719   Si       0.41047    0.17124    0.73427    1.000
    N1720    N        0.27503    0.14861    0.77103    1.000
    Si1721   Si       0.25682    0.17450    0.80228    1.000
    Si1722   Si       0.35812    0.15440    0.77692    1.000
    N1723    N        0.33541    0.12568    0.80225    1.000
    Si1724   Si       0.42612    0.16597    0.83832    1.000
    N1725    N        0.39725    0.13936    0.76385    1.000
    N1726    N        0.38595    0.15081    0.84753    1.000
    N1727    N        0.45810    0.13770    0.82153    1.000
    N1728    N        0.32972    0.14018    0.87655    1.000
    Si1729   Si       0.28854    0.13209    0.88799    1.000
    Si1730   Si       0.30598    0.14011    0.98156    1.000
    N1731    N        0.30455    0.17290    0.95371    1.000
    Si1732   Si       0.26500    0.17131    0.93553    1.000
    N1733    N        0.26912    0.17260    0.89281    1.000
    Si1734   Si       0.36026    0.17122    0.87889    1.000
    Si1735   Si       0.42360    0.17576    0.91393    1.000
    N1736    N        0.44373    0.18185    0.87580    1.000
    N1737    N        0.43140    0.13519    0.92721    1.000
    Si1738   Si       0.46651    0.14593    0.95004    1.000
    N1739    N        0.33659    0.20123    0.10775    1.000
    N1740    N        0.24837    0.22212    0.08596    1.000
    N1741    N        0.36164    0.22172    0.03878    1.000
    Si1742   Si       0.34625    0.24418    0.00479    1.000
    Si1743   Si       0.37228    0.20773    0.08025    1.000
    Si1744   Si       0.46355    0.22238    0.05594    1.000
    N1745    N        0.47386    0.20513    0.01681    1.000
    N1746    N        0.38868    0.23536    0.11385    1.000
    Si1747   Si       0.36892    0.18687    0.01065    1.000
    N1748    N        0.44373    0.18644    0.07236    1.000
    Si1749   Si       0.24813    0.19721    0.12282    1.000
    N1750    N        0.24723    0.21985    0.15808    1.000
    Si1751   Si       0.24969    0.19878    0.19723    1.000
    Si1752   Si       0.34720    0.23294    0.13206    1.000
    N1753    N        0.28118    0.21342    0.22283    1.000
    Si1754   Si       0.32324    0.21314    0.20828    1.000
    N1755    N        0.33397    0.23954    0.17550    1.000
    N1756    N        0.43276    0.24380    0.18395    1.000
    Si1757   Si       0.42163    0.22952    0.14340    1.000
    Si1758   Si       0.43113    0.21913    0.21979    1.000
    N1759    N        0.25558    0.22796    0.35009    1.000
    Si1760   Si       0.27568    0.21978    0.26551    1.000
    N1761    N        0.34098    0.21141    0.24841    1.000
    Si1762   Si       0.27520    0.19110    0.36876    1.000
    Si1763   Si       0.44556    0.20659    0.29160    1.000
    N1764    N        0.40155    0.20354    0.29048    1.000
    Si1765   Si       0.37621    0.22883    0.26777    1.000
    N1766    N        0.46641    0.23955    0.31175    1.000
    N1767    N        0.46207    0.20616    0.25041    1.000
    N1768    N        0.31704    0.20438    0.37343    1.000
    N1769    N        0.26164    0.22784    0.41556    1.000
    N1770    N        0.44364    0.19981    0.37297    1.000
    N1771    N        0.44511    0.21551    0.46873    1.000
    Si1772   Si       0.46726    0.23304    0.38855    1.000
    N1773    N        0.38429    0.19546    0.41459    1.000
    Si1774   Si       0.40475    0.21760    0.38635    1.000
    Si1775   Si       0.48849    0.21176    0.46073    1.000
    Si1776   Si       0.32381    0.22092    0.53696    1.000
    N1777    N        0.33391    0.21257    0.57895    1.000
    N1778    N        0.26605    0.19556    0.59347    1.000
    Si1779   Si       0.26182    0.23503    0.57689    1.000
    N1780    N        0.28343    0.24007    0.53903    1.000
    Si1781   Si       0.25809    0.23922    0.50505    1.000
    Si1782   Si       0.30811    0.19020    0.60463    1.000
    Si1783   Si       0.36704    0.22892    0.60341    1.000
    Si1784   Si       0.41204    0.19535    0.55608    1.000
    N1785    N        0.40312    0.20755    0.51602    1.000
    N1786    N        0.40228    0.23154    0.57806    1.000
    N1787    N        0.45496    0.18728    0.55057    1.000
    Si1788   Si       0.44170    0.18792    0.50381    1.000
    N1789    N        0.49212    0.21424    0.61700    1.000
    N1790    N        0.30855    0.20289    0.64579    1.000
    Si1791   Si       0.34694    0.21106    0.73261    1.000
    N1792    N        0.27735    0.19696    0.70988    1.000
    N1793    N        0.35617    0.22446    0.69304    1.000
    Si1794   Si       0.32810    0.23851    0.66180    1.000
    Si1795   Si       0.28249    0.24075    0.71719    1.000
    Si1796   Si       0.48157    0.18790    0.72443    1.000
    N1797    N        0.41721    0.24353    0.67296    1.000
    N1798    N        0.38138    0.19828    0.63157    1.000
    Si1799   Si       0.39034    0.20931    0.67247    1.000
    N1800    N        0.48239    0.21356    0.68831    1.000
    Si1801   Si       0.32542    0.20658    0.82335    1.000
    N1802    N        0.34374    0.20904    0.86316    1.000
    N1803    N        0.35864    0.19038    0.79866    1.000
    Si1804   Si       0.26606    0.20343    0.86494    1.000
    N1805    N        0.28501    0.19381    0.82684    1.000
    N1806    N        0.31770    0.23983    0.74597    1.000
    N1807    N        0.49105    0.21744    0.83860    1.000
    N1808    N        0.42735    0.20050    0.81129    1.000
    Si1809   Si       0.39238    0.21559    0.79025    1.000
    Si1810   Si       0.45473    0.23374    0.82462    1.000
    N1811    N        0.48242    0.21511    0.75695    1.000
    N1812    N        0.39186    0.20786    0.74741    1.000
    N1813    N        0.25904    0.21408    0.94493    1.000
    Si1814   Si       0.30639    0.21586    0.95472    1.000
    N1815    N        0.30546    0.23959    0.99286    1.000
    N1816    N        0.35978    0.21280    0.97447    1.000
    N1817    N        0.33184    0.24181    0.92577    1.000
    Si1818   Si       0.48829    0.21747    0.93954    1.000
    N1819    N        0.45696    0.18903    0.94909    1.000
    Si1820   Si       0.44009    0.20308    0.98825    1.000
    Si1821   Si       0.48624    0.19033    0.87342    1.000
    N1822    N        0.38119    0.18328    0.91368    1.000
    Si1823   Si       0.36974    0.22096    0.93245    1.000
    N1824    N        0.26494    0.28851    0.03014    1.000
    N1825    N        0.26202    0.29565    0.10367    1.000
    N1826    N        0.37762    0.28862    0.07213    1.000
    Si1827   Si       0.41490    0.26651    0.08875    1.000
    Si1828   Si       0.43920    0.27128    0.01358    1.000
    N1829    N        0.43133    0.25155    0.05101    1.000
    N1830    N        0.47981    0.27764    0.00414    1.000
    N1831    N        0.45034    0.24660    0.11523    1.000
    N1832    N        0.33609    0.27700    0.12612    1.000
    Si1833   Si       0.32939    0.28182    0.16824    1.000
    N1834    N        0.24503    0.28587    0.21653    1.000
    N1835    N        0.48201    0.29328    0.19077    1.000
    Si1836   Si       0.43981    0.28605    0.19036    1.000
    N1837    N        0.31224    0.27205    0.35378    1.000
    Si1838   Si       0.27779    0.25964    0.32847    1.000
    Si1839   Si       0.32062    0.28187    0.27682    1.000
    N1840    N        0.25203    0.29289    0.33798    1.000
    N1841    N        0.29422    0.25218    0.28928    1.000
    N1842    N        0.36150    0.26889    0.27907    1.000
    Si1843   Si       0.46279    0.27946    0.29628    1.000
    Si1844   Si       0.39434    0.28990    0.25950    1.000
    N1845    N        0.42865    0.29634    0.35587    1.000
    N1846    N        0.48530    0.27209    0.25927    1.000
    N1847    N        0.40799    0.24921    0.24428    1.000
    Si1848   Si       0.28462    0.26076    0.43296    1.000
    N1849    N        0.28588    0.25767    0.47607    1.000
    N1850    N        0.32617    0.25935    0.41946    1.000
    Si1851   Si       0.35655    0.28002    0.44394    1.000
    N1852    N        0.25775    0.28908    0.40644    1.000
    Si1853   Si       0.33452    0.24333    0.37852    1.000
    N1854    N        0.48790    0.26973    0.37908    1.000
    N1855    N        0.37648    0.24567    0.36851    1.000
    N1856    N        0.43038    0.24742    0.40755    1.000
    N1857    N        0.45069    0.28529    0.45979    1.000
    Si1858   Si       0.39113    0.28760    0.37570    1.000
    N1859    N        0.38673    0.25621    0.46535    1.000
    Si1860   Si       0.42770    0.25049    0.45102    1.000
    N1861    N        0.27695    0.26565    0.60402    1.000
    Si1862   Si       0.31568    0.28520    0.61279    1.000
    N1863    N        0.34617    0.25268    0.52094    1.000
    Si1864   Si       0.31307    0.27830    0.50406    1.000
    Si1865   Si       0.24435    0.29444    0.61482    1.000
    N1866    N        0.46707    0.26769    0.57403    1.000
    N1867    N        0.41033    0.27869    0.52902    1.000
    Si1868   Si       0.42397    0.26905    0.56866    1.000
    N1869    N        0.40137    0.29758    0.59650    1.000
    Si1870   Si       0.38747    0.24808    0.50858    1.000
    N1871    N        0.34430    0.25850    0.62854    1.000
    N1872    N        0.29919    0.26139    0.68337    1.000
    N1873    N        0.24485    0.26144    0.72398    1.000
    N1874    N        0.24084    0.29760    0.65821    1.000
    Si1875   Si       0.28180    0.30020    0.67520    1.000
    N1876    N        0.47613    0.27456    0.64818    1.000
    Si1877   Si       0.40672    0.27570    0.70177    1.000
    N1878    N        0.44781    0.27570    0.71568    1.000
    N1879    N        0.38567    0.29975    0.73194    1.000
    Si1880   Si       0.45925    0.24992    0.68083    1.000
    Si1881   Si       0.31110    0.26929    0.77701    1.000
    N1882    N        0.27602    0.29258    0.77345    1.000
    N1883    N        0.32071    0.24837    0.81392    1.000
    Si1884   Si       0.35351    0.27470    0.81971    1.000
    N1885    N        0.36001    0.27608    0.86447    1.000
    N1886    N        0.24510    0.29842    0.83792    1.000
    N1887    N        0.34145    0.30218    0.78627    1.000
    N1888    N        0.46793    0.26669    0.79736    1.000
    N1889    N        0.38551    0.25653    0.79882    1.000
    Si1890   Si       0.38573    0.29396    0.77356    1.000
    N1891    N        0.43605    0.25489    0.85672    1.000
    Si1892   Si       0.26424    0.28500    0.87364    1.000
    Si1893   Si       0.33832    0.28215    0.94746    1.000
    Si1894   Si       0.27490    0.27413    0.99046    1.000
    N1895    N        0.28663    0.24284    0.87629    1.000
    N1896    N        0.29924    0.29667    0.95874    1.000
    Si1897   Si       0.32971    0.24579    0.88271    1.000
    N1898    N        0.36237    0.28105    0.98523    1.000
    N1899    N        0.47148    0.25822    0.93591    1.000
    Si1900   Si       0.42915    0.26519    0.94400    1.000
    N1901    N        0.39975    0.24754    0.91729    1.000
    Si1902   Si       0.40339    0.26665    0.87956    1.000
    N1903    N        0.42777    0.24268    0.98152    1.000
    N1904    N        0.31602    0.32207    0.07356    1.000
    Si1905   Si       0.27401    0.31348    0.06475    1.000
    N1906    N        0.24979    0.34747    0.05897    1.000
    Si1907   Si       0.34935    0.30767    0.09912    1.000
    Si1908   Si       0.33258    0.35733    0.05822    1.000
    Si1909   Si       0.40501    0.32101    0.05872    1.000
    N1910    N        0.37528    0.35338    0.05615    1.000
    Si1911   Si       0.46160    0.33827    0.03104    1.000
    N1912    N        0.42272    0.31278    0.02001    1.000
    N1913    N        0.43268    0.30666    0.08912    1.000
    N1914    N        0.36720    0.33823    0.12452    1.000
    N1915    N        0.26488    0.35136    0.22579    1.000
    Si1916   Si       0.26827    0.31924    0.13931    1.000
    Si1917   Si       0.34473    0.32764    0.22442    1.000
    N1918    N        0.35824    0.30724    0.18807    1.000
    Si1919   Si       0.27742    0.31196    0.21126    1.000
    N1920    N        0.30924    0.30809    0.24049    1.000
    N1921    N        0.29204    0.30404    0.17153    1.000
    Si1922   Si       0.38661    0.32978    0.16497    1.000
    Si1923   Si       0.44675    0.32545    0.12589    1.000
    N1924    N        0.42218    0.30674    0.15588    1.000
    N1925    N        0.48874    0.31864    0.12665    1.000
    N1926    N        0.48036    0.33923    0.24366    1.000
    N1927    N        0.42144    0.30991    0.22141    1.000
    Si1928   Si       0.28528    0.33248    0.27282    1.000
    Si1929   Si       0.32684    0.31224    0.34185    1.000
    N1930    N        0.31230    0.31579    0.30189    1.000
    N1931    N        0.30262    0.33806    0.36534    1.000
    Si1932   Si       0.26608    0.31689    0.37083    1.000
    N1933    N        0.24113    0.32498    0.27985    1.000
    Si1934   Si       0.40802    0.32138    0.32489    1.000
    Si1935   Si       0.43922    0.33109    0.25466    1.000
    N1936    N        0.37376    0.33032    0.25503    1.000
    N1937    N        0.36999    0.31312    0.34632    1.000
    N1938    N        0.48588    0.30621    0.32165    1.000
    N1939    N        0.42598    0.30408    0.28860    1.000
    Si1940   Si       0.46781    0.30430    0.36132    1.000
    Si1941   Si       0.24702    0.31026    0.49882    1.000
    N1942    N        0.25544    0.33236    0.46163    1.000
    Si1943   Si       0.35553    0.34254    0.48103    1.000
    N1944    N        0.34546    0.35947    0.44174    1.000
    N1945    N        0.33887    0.30355    0.47797    1.000
    N1946    N        0.23895    0.34834    0.38576    1.000
    N1947    N        0.39927    0.33907    0.48940    1.000
    N1948    N        0.37513    0.30329    0.41288    1.000
    N1949    N        0.46920    0.35532    0.45885    1.000
    N1950    N        0.47299    0.34219    0.38251    1.000
    Si1951   Si       0.42717    0.35745    0.46202    1.000
    Si1952   Si       0.37058    0.34894    0.40918    1.000
    N1953    N        0.41101    0.36013    0.42140    1.000
    Si1954   Si       0.29301    0.32839    0.56110    1.000
    N1955    N        0.25798    0.32422    0.58412    1.000
    N1956    N        0.32858    0.31077    0.57941    1.000
    N1957    N        0.28531    0.30941    0.52284    1.000
    Si1958   Si       0.37023    0.32420    0.58513    1.000
    N1959    N        0.45089    0.33441    0.54600    1.000
    N1960    N        0.38647    0.34675    0.55153    1.000
    Si1961   Si       0.41423    0.32172    0.52809    1.000
    Si1962   Si       0.48619    0.35227    0.56193    1.000
    N1963    N        0.30550    0.31417    0.64357    1.000
    Si1964   Si       0.33394    0.34683    0.64841    1.000
    N1965    N        0.27956    0.32547    0.71003    1.000
    N1966    N        0.34761    0.34772    0.68905    1.000
    Si1967   Si       0.25188    0.31105    0.74230    1.000
    Si1968   Si       0.31029    0.35743    0.71252    1.000
    N1969    N        0.47822    0.33230    0.69456    1.000
    Si1970   Si       0.48445    0.31875    0.65532    1.000
    N1971    N        0.37087    0.34598    0.62321    1.000
    N1972    N        0.40148    0.31040    0.67457    1.000
    N1973    N        0.45038    0.33593    0.63029    1.000
    Si1974   Si       0.40807    0.32233    0.63345    1.000
    Si1975   Si       0.38499    0.33464    0.70583    1.000
    Si1976   Si       0.47533    0.30548    0.72929    1.000
    N1977    N        0.29701    0.34426    0.81910    1.000
    Si1978   Si       0.26329    0.32000    0.80413    1.000
    Si1979   Si       0.32776    0.34270    0.79006    1.000
    Si1980   Si       0.30367    0.35027    0.86163    1.000
    N1981    N        0.34769    0.34736    0.86548    1.000
    N1982    N        0.24368    0.34509    0.77338    1.000
    N1983    N        0.32035    0.36520    0.75200    1.000
    N1984    N        0.46969    0.33165    0.83388    1.000
    N1985    N        0.41258    0.31682    0.79945    1.000
    N1986    N        0.47059    0.32892    0.76694    1.000
    Si1987   Si       0.45498    0.30746    0.80088    1.000
    Si1988   Si       0.43734    0.33899    0.86221    1.000
    Si1989   Si       0.40543    0.35982    0.80244    1.000
    N1990    N        0.24586    0.33134    0.94207    1.000
    N1991    N        0.28822    0.31874    0.88817    1.000
    Si1992   Si       0.28923    0.32661    0.93100    1.000
    N1993    N        0.35213    0.31366    0.92440    1.000
    Si1994   Si       0.35301    0.35614    0.93890    1.000
    N1995    N        0.45905    0.35174    0.89731    1.000
    Si1996   Si       0.36598    0.31382    0.88413    1.000
    N1997    N        0.48529    0.32935    0.95437    1.000
    N1998    N        0.37076    0.35049    0.97952    1.000
    Si1999   Si       0.44856    0.33475    0.93386    1.000
    N2000    N        0.40994    0.31136    0.88204    1.000
    N2001    N        0.42121    0.30760    0.95339    1.000
    Si2002   Si       0.39182    0.31444    0.98437    1.000
    N2003    N        0.32424    0.38561    0.09016    1.000
    N2004    N        0.32341    0.37687    0.02051    1.000
    Si2005   Si       0.28590    0.39848    0.01085    1.000
    Si2006   Si       0.36179    0.38024    0.11726    1.000
    N2007    N        0.24535    0.38260    0.99796    1.000
    Si2008   Si       0.36251    0.38649    0.00286    1.000
    N2009    N        0.27327    0.41715    0.04947    1.000
    N2010    N        0.40134    0.40038    0.01957    1.000
    Si2011   Si       0.45818    0.38367    0.09220    1.000
    Si2012   Si       0.40215    0.38801    0.06046    1.000
    N2013    N        0.39179    0.40671    0.09682    1.000
    N2014    N        0.47236    0.36955    0.00313    1.000
    Si2015   Si       0.44232    0.40307    0.00104    1.000
    N2016    N        0.43670    0.36380    0.05998    1.000
    Si2017   Si       0.30052    0.39422    0.13176    1.000
    N2018    N        0.33324    0.36901    0.21265    1.000
    Si2019   Si       0.29555    0.38166    0.22973    1.000
    N2020    N        0.33743    0.39520    0.15182    1.000
    Si2021   Si       0.35944    0.39652    0.18969    1.000
    N2022    N        0.27286    0.36172    0.13517    1.000
    N2023    N        0.45861    0.39356    0.20118    1.000
    N2024    N        0.38110    0.40292    0.24254    1.000
    Si2025   Si       0.43433    0.39292    0.16618    1.000
    N2026    N        0.44505    0.36993    0.13034    1.000
    N2027    N        0.39536    0.37127    0.17718    1.000
    Si2028   Si       0.32007    0.39660    0.30177    1.000
    N2029    N        0.29947    0.37283    0.27272    1.000
    N2030    N        0.29765    0.40249    0.33928    1.000
    N2031    N        0.36165    0.38431    0.30782    1.000
    Si2032   Si       0.38380    0.38973    0.34508    1.000
    Si2033   Si       0.45602    0.39661    0.28789    1.000
    Si2034   Si       0.38329    0.37103    0.27098    1.000
    N2035    N        0.47206    0.39791    0.33006    1.000
    Si2036   Si       0.45304    0.37623    0.36278    1.000
    N2037    N        0.42584    0.36611    0.27560    1.000
    N2038    N        0.41558    0.35996    0.34453    1.000
    N2039    N        0.48761    0.40503    0.25671    1.000
    Si2040   Si       0.31162    0.37922    0.37453    1.000
    N2041    N        0.35683    0.37688    0.37652    1.000
    Si2042   Si       0.31571    0.39075    0.44711    1.000
    N2043    N        0.29413    0.39616    0.40956    1.000
    N2044    N        0.28933    0.38573    0.48101    1.000
    Si2045   Si       0.24826    0.37406    0.47411    1.000
    Si2046   Si       0.25937    0.41978    0.41986    1.000
    N2047    N        0.42016    0.40003    0.46709    1.000
    N2048    N        0.45978    0.40058    0.40085    1.000
    Si2049   Si       0.47893    0.36571    0.41860    1.000
    Si2050   Si       0.42202    0.40368    0.42294    1.000
    Si2051   Si       0.30674    0.39856    0.59302    1.000
    Si2052   Si       0.30593    0.39086    0.52094    1.000
    N2053    N        0.26354    0.39362    0.60546    1.000
    N2054    N        0.34765    0.37762    0.50763    1.000
    N2055    N        0.35295    0.39805    0.57784    1.000
    N2056    N        0.29580    0.37106    0.55707    1.000
    Si2057   Si       0.24106    0.36541    0.58536    1.000
    Si2058   Si       0.37255    0.38643    0.54159    1.000
    N2059    N        0.41689    0.39393    0.61517    1.000
    N2060    N        0.48783    0.38399    0.59196    1.000
    Si2061   Si       0.37234    0.39027    0.61747    1.000
    N2062    N        0.40141    0.41735    0.53161    1.000
    N2063    N        0.32480    0.38767    0.63328    1.000
    N2064    N        0.30338    0.39788    0.69628    1.000
    Si2065   Si       0.33153    0.41581    0.66469    1.000
    Si2066   Si       0.45712    0.37730    0.62291    1.000
    Si2067   Si       0.46141    0.37210    0.69859    1.000
    N2068    N        0.37656    0.41735    0.74594    1.000
    N2069    N        0.48059    0.38972    0.73138    1.000
    N2070    N        0.41914    0.36475    0.71126    1.000
    Si2071   Si       0.41342    0.39684    0.74019    1.000
    N2072    N        0.46967    0.39473    0.66127    1.000
    N2073    N        0.37430    0.42120    0.64961    1.000
    Si2074   Si       0.34574    0.39603    0.76832    1.000
    N2075    N        0.25178    0.41072    0.80786    1.000
    Si2076   Si       0.24453    0.39886    0.84843    1.000
    N2077    N        0.32165    0.41954    0.79346    1.000
    N2078    N        0.27871    0.38508    0.87180    1.000
    N2079    N        0.36423    0.36737    0.79379    1.000
    N2080    N        0.40923    0.36899    0.84631    1.000
    N2081    N        0.43180    0.38309    0.77833    1.000
    Si2082   Si       0.47475    0.37332    0.77094    1.000
    Si2083   Si       0.28757    0.39742    0.91411    1.000
    N2084    N        0.24611    0.39783    0.92899    1.000
    N2085    N        0.35772    0.40883    0.96462    1.000
    N2086    N        0.31041    0.36455    0.93438    1.000
    N2087    N        0.43345    0.40454    0.95846    1.000
    Si2088   Si       0.37525    0.38102    0.86977    1.000
    Si2089   Si       0.39504    0.40985    0.93936    1.000
    N2090    N        0.38190    0.37698    0.91272    1.000
    N2091    N        0.33769    0.44891    0.05924    1.000
    N2092    N        0.29178    0.43288    0.11519    1.000
    Si2093   Si       0.24335    0.44859    0.04605    1.000
    Si2094   Si       0.30690    0.42533    0.07559    1.000
    Si2095   Si       0.47338    0.44806    0.05764    1.000
    N2096    N        0.46269    0.43849    0.01533    1.000
    Si2097   Si       0.41777    0.43936    0.10960    1.000
    N2098    N        0.45237    0.42657    0.08556    1.000
    N2099    N        0.39869    0.47691    0.09954    1.000
    Si2100   Si       0.36453    0.47925    0.06650    1.000
    Si2101   Si       0.25723    0.44136    0.19223    1.000
    Si2102   Si       0.29738    0.47244    0.13259    1.000
    N2103    N        0.27703    0.47480    0.17091    1.000
    Si2104   Si       0.35337    0.47898    0.18234    1.000
    N2105    N        0.28297    0.42154    0.21943    1.000
    N2106    N        0.33854    0.48040    0.14249    1.000
    N2107    N        0.36936    0.43830    0.19029    1.000
    Si2108   Si       0.47125    0.43356    0.22619    1.000
    N2109    N        0.42927    0.45318    0.22025    1.000
    Si2110   Si       0.40831    0.45669    0.18165    1.000
    N2111    N        0.42525    0.43352    0.15151    1.000
    N2112    N        0.31934    0.43866    0.28223    1.000
    N2113    N        0.27159    0.46324    0.32935    1.000
    Si2114   Si       0.31184    0.46699    0.31463    1.000
    Si2115   Si       0.33583    0.47066    0.25563    1.000
    Si2116   Si       0.25811    0.42441    0.34356    1.000
    Si2117   Si       0.42846    0.45286    0.32544    1.000
    N2118    N        0.42995    0.43292    0.28834    1.000
    Si2119   Si       0.40352    0.43866    0.25351    1.000
    N2120    N        0.37770    0.47310    0.26362    1.000
    N2121    N        0.39545    0.43173    0.34668    1.000
    N2122    N        0.44864    0.45748    0.36970    1.000
    N2123    N        0.47942    0.47015    0.25335    1.000
    N2124    N        0.27412    0.44623    0.45127    1.000
    N2125    N        0.33900    0.42474    0.45375    1.000
    N2126    N        0.24253    0.43516    0.38415    1.000
    Si2127   Si       0.26319    0.43772    0.49408    1.000
    Si2128   Si       0.36644    0.45423    0.44114    1.000
    Si2129   Si       0.47785    0.44385    0.39757    1.000
    Si2130   Si       0.40550    0.46001    0.37816    1.000
    N2131    N        0.40047    0.44021    0.41573    1.000
    Si2132   Si       0.41807    0.43342    0.49411    1.000
    N2133    N        0.48549    0.46268    0.43726    1.000
    N2134    N        0.38831    0.46157    0.47893    1.000
    N2135    N        0.30788    0.44283    0.59594    1.000
    Si2136   Si       0.31466    0.45591    0.55579    1.000
    N2137    N        0.29566    0.43137    0.52509    1.000
    N2138    N        0.35634    0.46507    0.54386    1.000
    N2139    N        0.25055    0.47887    0.50653    1.000
    Si2140   Si       0.39593    0.45327    0.55626    1.000
    N2141    N        0.40722    0.45956    0.59702    1.000
    N2142    N        0.46053    0.44228    0.49990    1.000
    N2143    N        0.24767    0.42495    0.66884    1.000
    Si2144   Si       0.29579    0.46838    0.62807    1.000
    N2145    N        0.27371    0.45950    0.72492    1.000
    N2146    N        0.31448    0.45726    0.66592    1.000
    Si2147   Si       0.26862    0.42102    0.70598    1.000
    N2148    N        0.25593    0.48068    0.63403    1.000
    Si2149   Si       0.30672    0.47768    0.70242    1.000
    Si2150   Si       0.47999    0.43788    0.65643    1.000
    N2151    N        0.43512    0.43350    0.72785    1.000
    N2152    N        0.43944    0.45414    0.65688    1.000
    Si2153   Si       0.39923    0.45623    0.74118    1.000
    Si2154   Si       0.47785    0.43512    0.72840    1.000
    Si2155   Si       0.41099    0.43378    0.63147    1.000
    Si2156   Si       0.28491    0.43893    0.80644    1.000
    N2157    N        0.30112    0.44735    0.84633    1.000
    Si2158   Si       0.34074    0.43703    0.82969    1.000
    N2159    N        0.35432    0.47207    0.80808    1.000
    N2160    N        0.28547    0.47640    0.78772    1.000
    N2161    N        0.36541    0.42150    0.85923    1.000
    N2162    N        0.46909    0.44429    0.82831    1.000
    N2163    N        0.41123    0.47080    0.85350    1.000
    N2164    N        0.41479    0.46872    0.77990    1.000
    Si2165   Si       0.45278    0.45423    0.86692    1.000
    Si2166   Si       0.45530    0.47239    0.79543    1.000
    N2167    N        0.48710    0.45195    0.76747    1.000
    Si2168   Si       0.32825    0.43920    0.95419    1.000
    N2169    N        0.30720    0.43561    0.91557    1.000
    N2170    N        0.29754    0.43333    0.98644    1.000
    Si2171   Si       0.30541    0.46733    0.88510    1.000
    Si2172   Si       0.26913    0.46599    0.99440    1.000
    N2173    N        0.39820    0.44816    0.91990    1.000
    Si2174   Si       0.48419    0.46624    0.98949    1.000
    N2175    N        0.47127    0.46269    0.94716    1.000
    Si2176   Si       0.46385    0.42325    0.93467    1.000
    Si2177   Si       0.38130    0.45764    0.88203    1.000
    N2178    N        0.46481    0.41856    0.89249    1.000
    N2179    N        0.27925    0.50420    0.10796    1.000
    N2180    N        0.34760    0.51467    0.08706    1.000
    Si2181   Si       0.26383    0.52560    0.03767    1.000
    Si2182   Si       0.30787    0.52972    0.09019    1.000
    N2183    N        0.26933    0.48386    0.03520    1.000
    Si2184   Si       0.23664    0.49965    0.09664    1.000
    N2185    N        0.48233    0.50810    0.00156    1.000
    Si2186   Si       0.42269    0.50388    0.07071    1.000
    N2187    N        0.46170    0.48951    0.06011    1.000
    N2188    N        0.39424    0.49485    0.03880    1.000
    Si2189   Si       0.39338    0.52320    0.00646    1.000
    N2190    N        0.26478    0.51032    0.23120    1.000
    Si2191   Si       0.29469    0.50573    0.19720    1.000
    N2192    N        0.33108    0.48941    0.21640    1.000
    N2193    N        0.30799    0.53896    0.17369    1.000
    Si2194   Si       0.44799    0.49120    0.23021    1.000
    N2195    N        0.46484    0.50048    0.19165    1.000
    N2196    N        0.39446    0.49652    0.16914    1.000
    Si2197   Si       0.37235    0.50333    0.12553    1.000
    N2198    N        0.31580    0.50004    0.28188    1.000
    Si2199   Si       0.28165    0.52303    0.26859    1.000
    N2200    N        0.33502    0.49001    0.34319    1.000
    N2201    N        0.24874    0.52068    0.29715    1.000
    Si2202   Si       0.33695    0.52315    0.31259    1.000
    Si2203   Si       0.24772    0.49866    0.33534    1.000
    N2204    N        0.26406    0.52406    0.36763    1.000
    Si2205   Si       0.39730    0.50466    0.28215    1.000
    N2206    N        0.42709    0.49452    0.31234    1.000
    Si2207   Si       0.45221    0.52917    0.31991    1.000
    N2208    N        0.42010    0.51860    0.24830    1.000
    Si2209   Si       0.30289    0.47764    0.44640    1.000
    Si2210   Si       0.24571    0.52306    0.40674    1.000
    Si2211   Si       0.34802    0.50188    0.38392    1.000
    N2212    N        0.28091    0.51617    0.43548    1.000
    N2213    N        0.31953    0.48953    0.48756    1.000
    N2214    N        0.33696    0.47929    0.41784    1.000
    Si2215   Si       0.41961    0.53443    0.38941    1.000
    N2216    N        0.39138    0.50105    0.38258    1.000
    N2217    N        0.46053    0.50627    0.48522    1.000
    Si2218   Si       0.47786    0.50515    0.44544    1.000
    N2219    N        0.45247    0.52977    0.41784    1.000
    N2220    N        0.30017    0.49573    0.55317    1.000
    Si2221   Si       0.28606    0.50261    0.51242    1.000
    Si2222   Si       0.29532    0.52900    0.58227    1.000
    Si2223   Si       0.35968    0.48497    0.50472    1.000
    N2224    N        0.25079    0.53466    0.58198    1.000
    N2225    N        0.31000    0.51163    0.62039    1.000
    N2226    N        0.37232    0.52593    0.51531    1.000
    Si2227   Si       0.41828    0.50022    0.60554    1.000
    N2228    N        0.46101    0.50848    0.60412    1.000
    Si2229   Si       0.40518    0.52431    0.54195    1.000
    N2230    N        0.42114    0.48352    0.53847    1.000
    N2231    N        0.39441    0.53024    0.58328    1.000
    Si2232   Si       0.46029    0.48032    0.51982    1.000
    N2233    N        0.48989    0.47753    0.54929    1.000
    N2234    N        0.33863    0.48391    0.73204    1.000
    N2235    N        0.29033    0.51647    0.69004    1.000
    Si2236   Si       0.31635    0.53207    0.65923    1.000
    N2237    N        0.35355    0.52971    0.68272    1.000
    Si2238   Si       0.25896    0.53739    0.71010    1.000
    N2239    N        0.46304    0.54011    0.74588    1.000
    Si2240   Si       0.47150    0.53393    0.63837    1.000
    Si2241   Si       0.48645    0.53277    0.71095    1.000
    Si2242   Si       0.36722    0.51146    0.72005    1.000
    Si2243   Si       0.43053    0.49035    0.67656    1.000
    N2244    N        0.46789    0.51490    0.67842    1.000
    N2245    N        0.40658    0.51175    0.64566    1.000
    N2246    N        0.40157    0.48718    0.71085    1.000
    Si2247   Si       0.32702    0.48729    0.77527    1.000
    Si2248   Si       0.25648    0.48470    0.75650    1.000
    N2249    N        0.26004    0.52902    0.75278    1.000
    N2250    N        0.32895    0.52991    0.78405    1.000
    N2251    N        0.46613    0.51165    0.80948    1.000
    Si2252   Si       0.47674    0.51974    0.85155    1.000
    N2253    N        0.39299    0.52808    0.81300    1.000
    Si2254   Si       0.39552    0.48471    0.81614    1.000
    N2255    N        0.34740    0.48589    0.87962    1.000
    N2256    N        0.27952    0.50101    0.89139    1.000
    Si2257   Si       0.32797    0.51425    0.95964    1.000
    N2258    N        0.28753    0.50364    0.97449    1.000
    Si2259   Si       0.35850    0.52747    0.89475    1.000
    Si2260   Si       0.25246    0.53070    0.97038    1.000
    N2261    N        0.35019    0.47851    0.95240    1.000
    N2262    N        0.32562    0.53797    0.92409    1.000
    N2263    N        0.35306    0.52985    0.99159    1.000
    N2264    N        0.41497    0.49822    0.97489    1.000
    Si2265   Si       0.39307    0.48556    0.94019    1.000
    Si2266   Si       0.47810    0.49722    0.92336    1.000
    N2267    N        0.47373    0.48818    0.88151    1.000
    N2268    N        0.39667    0.52040    0.91351    1.000
    Si2269   Si       0.45080    0.52586    0.97950    1.000
    Si2270   Si       0.33370    0.55351    0.02262    1.000
    N2271    N        0.31508    0.56818    0.10938    1.000
    N2272    N        0.25574    0.55655    0.00561    1.000
    N2273    N        0.31625    0.58734    0.00055    1.000
    Si2274   Si       0.36028    0.56357    0.09036    1.000
    N2275    N        0.30167    0.53965    0.04941    1.000
    Si2276   Si       0.27626    0.59215    0.01692    1.000
    N2277    N        0.36758    0.56556    0.04634    1.000
    N2278    N        0.42947    0.54902    0.01057    1.000
    Si2279   Si       0.44412    0.56977    0.04529    1.000
    N2280    N        0.43068    0.54600    0.07931    1.000
    Si2281   Si       0.43169    0.57275    0.11521    1.000
    N2282    N        0.48847    0.56601    0.04399    1.000
    N2283    N        0.47036    0.59039    0.10590    1.000
    N2284    N        0.24932    0.58260    0.12120    1.000
    Si2285   Si       0.31816    0.57345    0.15240    1.000
    Si2286   Si       0.25587    0.58518    0.23947    1.000
    N2287    N        0.38879    0.56291    0.19908    1.000
    Si2288   Si       0.39931    0.54010    0.16712    1.000
    Si2289   Si       0.41760    0.55754    0.23129    1.000
    N2290    N        0.45931    0.56544    0.22020    1.000
    N2291    N        0.43985    0.55163    0.15310    1.000
    N2292    N        0.37916    0.54748    0.12910    1.000
    Si2293   Si       0.47108    0.54430    0.18232    1.000
    N2294    N        0.31155    0.55617    0.32295    1.000
    N2295    N        0.28957    0.56610    0.25984    1.000
    Si2296   Si       0.30504    0.58904    0.29267    1.000
    Si2297   Si       0.29708    0.55415    0.36401    1.000
    N2298    N        0.45163    0.56753    0.29568    1.000
    Si2299   Si       0.37765    0.58210    0.28890    1.000
    Si2300   Si       0.43807    0.58858    0.33034    1.000
    Si2301   Si       0.47154    0.58165    0.25866    1.000
    N2302    N        0.43614    0.55121    0.35284    1.000
    N2303    N        0.40144    0.58881    0.25422    1.000
    N2304    N        0.37147    0.53774    0.29661    1.000
    Si2305   Si       0.35215    0.56832    0.41307    1.000
    N2306    N        0.34148    0.55229    0.45401    1.000
    Si2307   Si       0.29923    0.54816    0.46015    1.000
    N2308    N        0.33151    0.54278    0.38659    1.000
    N2309    N        0.28670    0.58962    0.45129    1.000
    Si2310   Si       0.48523    0.56939    0.43140    1.000
    N2311    N        0.47685    0.57284    0.47400    1.000
    N2312    N        0.41039    0.55859    0.47286    1.000
    Si2313   Si       0.44787    0.54694    0.49256    1.000
    Si2314   Si       0.36942    0.55779    0.48763    1.000
    Si2315   Si       0.41561    0.58338    0.43933    1.000
    N2316    N        0.39410    0.56253    0.40885    1.000
    N2317    N        0.30456    0.56720    0.56144    1.000
    Si2318   Si       0.27286    0.57440    0.53123    1.000
    N2319    N        0.28020    0.54293    0.50174    1.000
    N2320    N        0.36055    0.60071    0.57479    1.000
    N2321    N        0.43988    0.55007    0.53508    1.000
    Si2322   Si       0.38758    0.57308    0.59473    1.000
    Si2323   Si       0.45166    0.58562    0.55671    1.000
    N2324    N        0.48688    0.59242    0.58028    1.000
    Si2325   Si       0.26790    0.57781    0.65588    1.000
    N2326    N        0.26255    0.57972    0.70037    1.000
    N2327    N        0.30955    0.57185    0.65152    1.000
    N2328    N        0.49047    0.57287    0.69601    1.000
    N2329    N        0.41767    0.55992    0.69332    1.000
    Si2330   Si       0.45034    0.58621    0.68070    1.000
    Si2331   Si       0.42264    0.55723    0.73626    1.000
    Si2332   Si       0.38938    0.54656    0.66525    1.000
    N2333    N        0.45462    0.57618    0.63979    1.000
    N2334    N        0.37485    0.57309    0.63527    1.000
    Si2335   Si       0.26442    0.57660    0.84773    1.000
    N2336    N        0.25997    0.55654    0.81084    1.000
    Si2337   Si       0.29064    0.54826    0.78014    1.000
    N2338    N        0.29815    0.58771    0.76342    1.000
    Si2339   Si       0.33813    0.58982    0.85967    1.000
    N2340    N        0.36693    0.59160    0.79361    1.000
    Si2341   Si       0.36815    0.54972    0.78654    1.000
    N2342    N        0.36835    0.55884    0.86512    1.000
    Si2343   Si       0.40730    0.55646    0.84375    1.000
    N2344    N        0.43029    0.58740    0.82092    1.000
    N2345    N        0.38311    0.53931    0.74724    1.000
    N2346    N        0.44297    0.54319    0.86709    1.000
    Si2347   Si       0.48613    0.54077    0.78295    1.000
    N2348    N        0.30030    0.56738    0.87107    1.000
    N2349    N        0.25597    0.55199    0.93529    1.000
    Si2350   Si       0.28653    0.54216    0.90505    1.000
    N2351    N        0.42110    0.59317    0.90291    1.000
    Si2352   Si       0.42983    0.55085    0.90730    1.000
    N2353    N        0.45977    0.53652    0.93876    1.000
    Si2354   Si       0.24949    0.64119    0.04294    1.000
    N2355    N        0.28870    0.64078    0.11149    1.000
    N2356    N        0.26808    0.60529    0.05929    1.000
    N2357    N        0.26616    0.63323    0.00338    1.000
    Si2358   Si       0.28279    0.59921    0.09977    1.000
    N2359    N        0.36571    0.63337    0.02126    1.000
    N2360    N        0.36683    0.60781    0.09134    1.000
    N2361    N        0.42537    0.60823    0.05157    1.000
    Si2362   Si       0.44576    0.63981    0.03035    1.000
    Si2363   Si       0.38217    0.60807    0.05229    1.000
    Si2364   Si       0.30152    0.63144    0.19852    1.000
    N2365    N        0.33887    0.62649    0.21902    1.000
    N2366    N        0.27150    0.62728    0.23333    1.000
    N2367    N        0.28763    0.60187    0.17024    1.000
    N2368    N        0.35078    0.60041    0.16013    1.000
    Si2369   Si       0.24380    0.59622    0.16308    1.000
    Si2370   Si       0.37541    0.62037    0.13165    1.000
    N2371    N        0.49107    0.62192    0.15763    1.000
    N2372    N        0.40368    0.63116    0.20202    1.000
    Si2373   Si       0.41751    0.63022    0.24335    1.000
    Si2374   Si       0.45410    0.63758    0.13728    1.000
    Si2375   Si       0.36873    0.60269    0.19980    1.000
    N2376    N        0.41829    0.61314    0.13388    1.000
    N2377    N        0.28140    0.61895    0.30972    1.000
    Si2378   Si       0.34693    0.64236    0.25988    1.000
    N2379    N        0.33460    0.64046    0.34603    1.000
    N2380    N        0.34228    0.60540    0.28108    1.000
    Si2381   Si       0.37924    0.63792    0.34505    1.000
    N2382    N        0.46541    0.61725    0.34861    1.000
    N2383    N        0.39768    0.60279    0.32229    1.000
    N2384    N        0.45829    0.62424    0.25463    1.000
    N2385    N        0.33004    0.64563    0.47143    1.000
    Si2386   Si       0.31077    0.62730    0.38365    1.000
    N2387    N        0.34554    0.61027    0.40504    1.000
    Si2388   Si       0.29151    0.62410    0.47570    1.000
    N2389    N        0.26143    0.65377    0.47211    1.000
    N2390    N        0.28365    0.59429    0.37607    1.000
    N2391    N        0.40408    0.63646    0.38261    1.000
    Si2392   Si       0.36892    0.63020    0.48708    1.000
    Si2393   Si       0.37598    0.63812    0.41709    1.000
    N2394    N        0.39107    0.61845    0.45236    1.000
    Si2395   Si       0.44674    0.62813    0.38608    1.000
    N2396    N        0.45170    0.59709    0.41673    1.000
    N2397    N        0.29079    0.61174    0.51804    1.000
    N2398    N        0.26639    0.63925    0.57558    1.000
    Si2399   Si       0.34810    0.63906    0.59052    1.000
    N2400    N        0.32582    0.64820    0.55472    1.000
    Si2401   Si       0.33008    0.60132    0.54172    1.000
    Si2402   Si       0.28631    0.65259    0.53955    1.000
    Si2403   Si       0.27957    0.64161    0.61755    1.000
    N2404    N        0.35573    0.59382    0.50849    1.000
    Si2405   Si       0.48816    0.60673    0.49979    1.000
    N2406    N        0.42327    0.60087    0.58678    1.000
    N2407    N        0.45477    0.61683    0.52673    1.000
    Si2408   Si       0.42354    0.64298    0.60016    1.000
    Si2409   Si       0.47382    0.60798    0.61887    1.000
    N2410    N        0.32081    0.63056    0.62184    1.000
    Si2411   Si       0.34205    0.60030    0.64845    1.000
    Si2412   Si       0.26503    0.60216    0.73631    1.000
    N2413    N        0.27089    0.64346    0.73277    1.000
    N2414    N        0.25378    0.61604    0.64026    1.000
    N2415    N        0.36094    0.62356    0.67661    1.000
    N2416    N        0.45504    0.64697    0.62913    1.000
    N2417    N        0.44060    0.62705    0.69138    1.000
    Si2418   Si       0.42358    0.63708    0.73237    1.000
    N2419    N        0.24961    0.61718    0.84568    1.000
    Si2420   Si       0.32713    0.61206    0.78643    1.000
    N2421    N        0.31486    0.61484    0.82871    1.000
    Si2422   Si       0.28271    0.64442    0.83392    1.000
    N2423    N        0.33883    0.64683    0.76444    1.000
    N2424    N        0.46736    0.64360    0.81433    1.000
    Si2425   Si       0.40702    0.60649    0.79005    1.000
    N2426    N        0.40777    0.64897    0.78420    1.000
    Si2427   Si       0.47194    0.60202    0.82088    1.000
    N2428    N        0.42017    0.59785    0.74964    1.000
    Si2429   Si       0.48355    0.65381    0.85307    1.000
    N2430    N        0.46174    0.65473    0.74802    1.000
    N2431    N        0.35699    0.62484    0.88035    1.000
    Si2432   Si       0.34493    0.61629    0.98465    1.000
    N2433    N        0.27145    0.64741    0.93498    1.000
    Si2434   Si       0.38506    0.61727    0.91264    1.000
    Si2435   Si       0.44367    0.63203    0.90970    1.000
    N2436    N        0.44584    0.63209    0.98884    1.000
    N2437    N        0.40892    0.64817    0.93080    1.000
    N2438    N        0.48219    0.62171    0.92727    1.000
    N2439    N        0.36329    0.60186    0.94774    1.000
    Si2440   Si       0.48476    0.61831    0.97224    1.000
    N2441    N        0.26100    0.67947    0.06028    1.000
    N2442    N        0.33214    0.69971    0.09087    1.000
    Si2443   Si       0.29127    0.68164    0.09239    1.000
    N2444    N        0.33229    0.70688    0.01935    1.000
    Si2445   Si       0.35767    0.67457    0.00264    1.000
    N2446    N        0.43880    0.68202    0.03919    1.000
    Si2447   Si       0.46747    0.69132    0.06943    1.000
    N2448    N        0.45929    0.66765    0.10498    1.000
    Si2449   Si       0.41329    0.71261    0.02045    1.000
    N2450    N        0.26690    0.70012    0.12518    1.000
    N2451    N        0.29637    0.66951    0.17508    1.000
    Si2452   Si       0.31038    0.71030    0.18030    1.000
    N2453    N        0.25927    0.69468    0.23556    1.000
    Si2454   Si       0.35921    0.69974    0.12430    1.000
    N2455    N        0.32731    0.71056    0.22043    1.000
    Si2456   Si       0.26545    0.66177    0.14474    1.000
    Si2457   Si       0.44047    0.70467    0.12748    1.000
    N2458    N        0.44057    0.67150    0.16526    1.000
    Si2459   Si       0.47107    0.69453    0.18499    1.000
    N2460    N        0.39392    0.70560    0.19919    1.000
    N2461    N        0.45577    0.70904    0.22249    1.000
    Si2462   Si       0.39960    0.66683    0.17845    1.000
    N2463    N        0.37184    0.66230    0.14437    1.000
    N2464    N        0.28651    0.68958    0.33571    1.000
    N2465    N        0.31651    0.66991    0.27650    1.000
    Si2466   Si       0.29983    0.70186    0.25413    1.000
    Si2467   Si       0.30659    0.65424    0.31699    1.000
    Si2468   Si       0.24256    0.65679    0.24866    1.000
    N2469    N        0.39281    0.67571    0.32683    1.000
    Si2470   Si       0.39674    0.68921    0.28739    1.000
    N2471    N        0.43735    0.70484    0.29400    1.000
    Si2472   Si       0.41993    0.71083    0.33605    1.000
    Si2473   Si       0.46782    0.71413    0.26430    1.000
    N2474    N        0.38876    0.65611    0.26256    1.000
    Si2475   Si       0.32190    0.67548    0.44135    1.000
    N2476    N        0.30030    0.66265    0.40470    1.000
    N2477    N        0.29821    0.70881    0.45815    1.000
    Si2478   Si       0.26713    0.69448    0.48413    1.000
    Si2479   Si       0.29751    0.69868    0.37623    1.000
    N2480    N        0.42431    0.71088    0.45642    1.000
    N2481    N        0.36394    0.67951    0.42758    1.000
    Si2482   Si       0.40781    0.70198    0.49635    1.000
    Si2483   Si       0.48003    0.69495    0.38036    1.000
    N2484    N        0.47326    0.65746    0.40308    1.000
    N2485    N        0.27883    0.69250    0.52421    1.000
    N2486    N        0.33486    0.70577    0.60424    1.000
    Si2487   Si       0.29505    0.71599    0.61600    1.000
    N2488    N        0.43080    0.66815    0.56566    1.000
    N2489    N        0.39269    0.66094    0.50794    1.000
    N2490    N        0.45138    0.68272    0.50278    1.000
    N2491    N        0.38263    0.65506    0.60890    1.000
    Si2492   Si       0.43102    0.71321    0.56852    1.000
    Si2493   Si       0.37390    0.69566    0.61968    1.000
    Si2494   Si       0.42941    0.65140    0.52665    1.000
    Si2495   Si       0.29137    0.69794    0.67519    1.000
    Si2496   Si       0.30961    0.66482    0.73681    1.000
    N2497    N        0.25153    0.69687    0.69064    1.000
    N2498    N        0.27301    0.68276    0.63408    1.000
    N2499    N        0.32224    0.67627    0.69586    1.000
    Si2500   Si       0.36497    0.66425    0.68862    1.000
    Si2501   Si       0.45602    0.66221    0.67000    1.000
    N2502    N        0.39620    0.66894    0.71981    1.000
    Si2503   Si       0.40178    0.70457    0.74305    1.000
    N2504    N        0.44725    0.70468    0.67760    1.000
    N2505    N        0.37992    0.69531    0.66196    1.000
    N2506    N        0.26341    0.67573    0.80957    1.000
    N2507    N        0.29440    0.70206    0.75193    1.000
    Si2508   Si       0.34273    0.66292    0.86506    1.000
    N2509    N        0.36172    0.67410    0.82936    1.000
    N2510    N        0.36693    0.70648    0.76863    1.000
    Si2511   Si       0.36919    0.66708    0.78768    1.000
    Si2512   Si       0.44759    0.66866    0.78623    1.000
    N2513    N        0.43192    0.70839    0.77512    1.000
    Si2514   Si       0.37903    0.71226    0.84434    1.000
    N2515    N        0.42182    0.71167    0.84582    1.000
    N2516    N        0.29943    0.66344    0.86967    1.000
    N2517    N        0.32968    0.65548    0.97515    1.000
    Si2518   Si       0.28691    0.65761    0.97399    1.000
    N2519    N        0.27234    0.69601    0.98345    1.000
    Si2520   Si       0.27540    0.67541    0.90269    1.000
    N2521    N        0.36007    0.70149    0.88193    1.000
    N2522    N        0.29493    0.71200    0.91729    1.000
    N2523    N        0.46065    0.69220    0.96438    1.000
    Si2524   Si       0.42633    0.66324    0.96671    1.000
    Si2525   Si       0.44227    0.70951    0.88485    1.000
    N2526    N        0.45409    0.66500    0.88250    1.000
    N2527    N        0.39645    0.68627    0.99131    1.000
    N2528    N        0.26187    0.74441    0.03184    1.000
    N2529    N        0.32600    0.76486    0.05712    1.000
    Si2530   Si       0.29307    0.72414    0.00767    1.000
    Si2531   Si       0.34466    0.72706    0.05564    1.000
    N2532    N        0.29310    0.76311    0.11703    1.000
    Si2533   Si       0.39626    0.75098    0.09048    1.000
    N2534    N        0.45625    0.72894    0.09167    1.000
    N2535    N        0.38846    0.72808    0.05264    1.000
    N2536    N        0.39911    0.71616    0.11776    1.000
    N2537    N        0.33824    0.72314    0.15169    1.000
    N2538    N        0.27398    0.73738    0.17998    1.000
    Si2539   Si       0.33283    0.76338    0.13759    1.000
    Si2540   Si       0.26201    0.74092    0.13837    1.000
    Si2541   Si       0.24116    0.72065    0.20714    1.000
    N2542    N        0.45324    0.73029    0.16193    1.000
    Si2543   Si       0.42869    0.73363    0.19880    1.000
    N2544    N        0.37102    0.76701    0.21854    1.000
    Si2545   Si       0.36686    0.72566    0.22715    1.000
    Si2546   Si       0.48283    0.75646    0.14650    1.000
    N2547    N        0.28995    0.73618    0.27891    1.000
    Si2548   Si       0.27341    0.72872    0.31887    1.000
    N2549    N        0.28458    0.76538    0.34055    1.000
    N2550    N        0.33618    0.71517    0.36960    1.000
    N2551    N        0.39534    0.74301    0.32688    1.000
    Si2552   Si       0.37397    0.75745    0.29428    1.000
    N2553    N        0.37529    0.72207    0.26890    1.000
    N2554    N        0.44189    0.71437    0.37361    1.000
    Si2555   Si       0.25849    0.76943    0.37703    1.000
    Si2556   Si       0.35236    0.75054    0.38813    1.000
    Si2557   Si       0.28775    0.74389    0.43498    1.000
    N2558    N        0.27120    0.73023    0.39569    1.000
    N2559    N        0.32338    0.76352    0.41779    1.000
    N2560    N        0.25860    0.77635    0.44677    1.000
    N2561    N        0.46069    0.75891    0.42895    1.000
    N2562    N        0.36801    0.72228    0.48042    1.000
    N2563    N        0.38922    0.74105    0.40817    1.000
    Si2564   Si       0.42983    0.75108    0.39542    1.000
    Si2565   Si       0.46157    0.73108    0.46139    1.000
    Si2566   Si       0.38387    0.71432    0.44085    1.000
    N2567    N        0.26592    0.76066    0.52532    1.000
    Si2568   Si       0.28891    0.72885    0.54399    1.000
    N2569    N        0.27041    0.73157    0.58430    1.000
    N2570    N        0.33128    0.73615    0.53965    1.000
    Si2571   Si       0.35353    0.73699    0.57713    1.000
    Si2572   Si       0.34983    0.75409    0.50361    1.000
    N2573    N        0.41195    0.72769    0.53162    1.000
    N2574    N        0.39255    0.72456    0.59311    1.000
    N2575    N        0.47172    0.72273    0.56503    1.000
    N2576    N        0.47740    0.74636    0.49923    1.000
    Si2577   Si       0.40039    0.77112    0.60597    1.000
    Si2578   Si       0.41063    0.76989    0.53314    1.000
    N2579    N        0.33329    0.75886    0.73594    1.000
    N2580    N        0.29934    0.73527    0.65524    1.000
    N2581    N        0.26764    0.77499    0.70105    1.000
    Si2582   Si       0.48672    0.71356    0.69354    1.000
    N2583    N        0.39620    0.73717    0.71655    1.000
    N2584    N        0.41005    0.75579    0.64928    1.000
    Si2585   Si       0.40931    0.72282    0.67689    1.000
    Si2586   Si       0.37442    0.77211    0.73038    1.000
    N2587    N        0.31260    0.73330    0.80271    1.000
    Si2588   Si       0.32822    0.76325    0.82999    1.000
    Si2589   Si       0.32917    0.72606    0.76326    1.000
    N2590    N        0.24517    0.74500    0.80308    1.000
    N2591    N        0.31288    0.75561    0.86924    1.000
    Si2592   Si       0.27320    0.71556    0.78946    1.000
    N2593    N        0.37119    0.75352    0.83421    1.000
    Si2594   Si       0.44075    0.73033    0.81070    1.000
    N2595    N        0.48318    0.71336    0.81017    1.000
    N2596    N        0.42891    0.77277    0.80981    1.000
    N2597    N        0.24244    0.73741    0.87285    1.000
    N2598    N        0.30360    0.75386    0.97394    1.000
    Si2599   Si       0.27427    0.73962    0.94413    1.000
    N2600    N        0.35567    0.75119    0.92744    1.000
    Si2601   Si       0.33029    0.72808    0.89907    1.000
    Si2602   Si       0.27243    0.76879    0.87676    1.000
    Si2603   Si       0.44700    0.73386    0.95647    1.000
    N2604    N        0.42991    0.74546    0.99415    1.000
    Si2605   Si       0.39597    0.76086    0.91711    1.000
    N2606    N        0.48380    0.75475    0.94690    1.000
    N2607    N        0.42389    0.72863    0.91844    1.000
    N2608    N        0.48304    0.72674    0.88214    1.000
    N2609    N        0.27819    0.81203    0.05368    1.000
    Si2610   Si       0.25223    0.78825    0.02731    1.000
    Si2611   Si       0.30051    0.78851    0.08251    1.000
    N2612    N        0.32116    0.82030    0.10937    1.000
    Si2613   Si       0.36471    0.81542    0.11042    1.000
    Si2614   Si       0.41458    0.81838    0.05406    1.000
    N2615    N        0.40345    0.82226    0.01109    1.000
    N2616    N        0.42209    0.78030    0.07293    1.000
    N2617    N        0.36781    0.77391    0.11451    1.000
    Si2618   Si       0.46321    0.77207    0.08354    1.000
    N2619    N        0.32821    0.79375    0.16824    1.000
    N2620    N        0.26299    0.80500    0.16638    1.000
    N2621    N        0.30528    0.78588    0.22657    1.000
    Si2622   Si       0.30058    0.82438    0.15069    1.000
    Si2623   Si       0.34367    0.79899    0.20790    1.000
    Si2624   Si       0.27119    0.77809    0.20022    1.000
    N2625    N        0.37757    0.82685    0.21514    1.000
    N2626    N        0.46946    0.78978    0.12290    1.000
    Si2627   Si       0.46193    0.80472    0.20909    1.000
    Si2628   Si       0.40358    0.79450    0.23646    1.000
    N2629    N        0.44010    0.82609    0.17702    1.000
    N2630    N        0.43435    0.77170    0.21719    1.000
    N2631    N        0.27201    0.81179    0.27913    1.000
    Si2632   Si       0.31968    0.78843    0.33550    1.000
    N2633    N        0.35377    0.78313    0.36052    1.000
    Si2634   Si       0.29983    0.77936    0.27081    1.000
    N2635    N        0.33696    0.77966    0.29529    1.000
    N2636    N        0.31507    0.83239    0.34238    1.000
    N2637    N        0.40172    0.78776    0.27865    1.000
    N2638    N        0.46474    0.80333    0.31685    1.000
    Si2639   Si       0.46632    0.80008    0.36126    1.000
    Si2640   Si       0.39056    0.80719    0.36033    1.000
    Si2641   Si       0.42917    0.82027    0.29355    1.000
    N2642    N        0.44078    0.82397    0.24946    1.000
    Si2643   Si       0.26892    0.81572    0.43114    1.000
    N2644    N        0.26605    0.81106    0.38811    1.000
    Si2645   Si       0.33074    0.79576    0.44555    1.000
    N2646    N        0.31875    0.77615    0.48192    1.000
    N2647    N        0.30904    0.82973    0.43702    1.000
    N2648    N        0.37225    0.80859    0.45379    1.000
    Si2649   Si       0.39164    0.81623    0.49011    1.000
    N2650    N        0.48590    0.81022    0.46466    1.000
    N2651    N        0.42788    0.78804    0.37427    1.000
    N2652    N        0.31187    0.81283    0.54364    1.000
    Si2653   Si       0.35266    0.81231    0.55656    1.000
    Si2654   Si       0.28943    0.79247    0.50895    1.000
    N2655    N        0.36176    0.77912    0.58575    1.000
    N2656    N        0.27018    0.82795    0.49635    1.000
    N2657    N        0.37275    0.78896    0.52225    1.000
    Si2658   Si       0.45602    0.80896    0.56691    1.000
    N2659    N        0.47787    0.81256    0.60390    1.000
    N2660    N        0.42756    0.77695    0.57242    1.000
    N2661    N        0.42875    0.79549    0.50191    1.000
    Si2662   Si       0.47140    0.78803    0.49820    1.000
    N2663    N        0.48648    0.80717    0.53573    1.000
    N2664    N        0.31998    0.80615    0.66315    1.000
    N2665    N        0.26727    0.79936    0.63144    1.000
    Si2666   Si       0.34161    0.82238    0.69564    1.000
    N2667    N        0.31392    0.82221    0.72909    1.000
    Si2668   Si       0.29850    0.78251    0.73160    1.000
    Si2669   Si       0.28687    0.77561    0.66221    1.000
    Si2670   Si       0.29660    0.83056    0.63631    1.000
    Si2671   Si       0.40738    0.79636    0.66452    1.000
    Si2672   Si       0.47314    0.82575    0.64611    1.000
    N2673    N        0.40396    0.81269    0.62525    1.000
    N2674    N        0.37841    0.79819    0.69531    1.000
    Si2675   Si       0.45076    0.82724    0.71417    1.000
    N2676    N        0.44729    0.80822    0.67607    1.000
    N2677    N        0.45021    0.79474    0.74194    1.000
    Si2678   Si       0.48677    0.77389    0.74222    1.000
    N2679    N        0.32851    0.80102    0.80938    1.000
    N2680    N        0.27003    0.79546    0.84167    1.000
    N2681    N        0.26916    0.79211    0.76145    1.000
    Si2682   Si       0.25061    0.78922    0.80149    1.000
    Si2683   Si       0.35839    0.82504    0.79176    1.000
    Si2684   Si       0.29565    0.82596    0.82581    1.000
    Si2685   Si       0.42638    0.80073    0.77696    1.000
    N2686    N        0.38370    0.79997    0.76530    1.000
    Si2687   Si       0.39864    0.78752    0.83865    1.000
    N2688    N        0.38711    0.82968    0.82492    1.000
    N2689    N        0.25632    0.80905    0.98715    1.000
    Si2690   Si       0.28124    0.80754    0.95106    1.000
    N2691    N        0.32579    0.81619    0.95622    1.000
    N2692    N        0.27256    0.77854    0.92067    1.000
    Si2693   Si       0.33870    0.77387    0.95988    1.000
    Si2694   Si       0.36326    0.82199    0.98920    1.000
    Si2695   Si       0.48802    0.79761    0.94997    1.000
    N2696    N        0.40825    0.78641    0.88182    1.000
    N2697    N        0.36906    0.77789    0.98908    1.000
    Si2698   Si       0.42019    0.78934    0.98590    1.000
    N2699    N        0.46175    0.80571    0.98398    1.000
    N2700    N        0.41300    0.79252    0.94260    1.000
    N2701    N        0.47223    0.81531    0.91340    1.000
    Si2702   Si       0.42831    0.81376    0.90856    1.000
    Si2703   Si       0.30002    0.84540    0.03600    1.000
    N2704    N        0.31521    0.87686    0.06436    1.000
    N2705    N        0.27890    0.86844    0.00638    1.000
    N2706    N        0.34061    0.83685    0.02192    1.000
    Si2707   Si       0.35977    0.86802    0.05742    1.000
    Si2708   Si       0.47235    0.83898    0.00990    1.000
    Si2709   Si       0.46825    0.86099    0.07800    1.000
    N2710    N        0.44330    0.85903    0.11515    1.000
    N2711    N        0.39192    0.88512    0.03179    1.000
    N2712    N        0.38244    0.83395    0.07480    1.000
    N2713    N        0.45376    0.83338    0.05051    1.000
    Si2714   Si       0.40930    0.86455    0.99999    1.000
    Si2715   Si       0.40176    0.87483    0.12036    1.000
    N2716    N        0.45018    0.87458    0.99452    1.000
    Si2717   Si       0.26622    0.88959    0.18350    1.000
    N2718    N        0.29414    0.86469    0.16357    1.000
    Si2719   Si       0.40122    0.84505    0.18199    1.000
    N2720    N        0.38200    0.84327    0.14261    1.000
    N2721    N        0.40932    0.88050    0.20615    1.000
    Si2722   Si       0.37612    0.87027    0.23132    1.000
    Si2723   Si       0.46413    0.82894    0.14179    1.000
    N2724    N        0.25056    0.87124    0.35091    1.000
    Si2725   Si       0.34067    0.85952    0.36238    1.000
    N2726    N        0.36071    0.88899    0.33919    1.000
    Si2727   Si       0.28104    0.84582    0.36721    1.000
    N2728    N        0.44487    0.86567    0.29705    1.000
    Si2729   Si       0.39964    0.87501    0.31390    1.000
    N2730    N        0.38275    0.87621    0.27392    1.000
    Si2731   Si       0.47551    0.85146    0.25399    1.000
    N2732    N        0.46209    0.86707    0.36222    1.000
    Si2733   Si       0.48330    0.86357    0.32291    1.000
    N2734    N        0.39895    0.83258    0.32531    1.000
    Si2735   Si       0.26900    0.86696    0.47814    1.000
    N2736    N        0.30869    0.87574    0.38772    1.000
    Si2737   Si       0.31800    0.87446    0.43134    1.000
    N2738    N        0.36032    0.87607    0.44275    1.000
    N2739    N        0.24672    0.85164    0.44188    1.000
    Si2740   Si       0.37856    0.89123    0.47748    1.000
    Si2741   Si       0.38293    0.84241    0.42849    1.000
    N2742    N        0.47603    0.86830    0.49385    1.000
    Si2743   Si       0.46714    0.84976    0.45519    1.000
    N2744    N        0.47789    0.87682    0.42149    1.000
    Si2745   Si       0.43912    0.87276    0.39985    1.000
    N2746    N        0.42641    0.84676    0.43342    1.000
    N2747    N        0.37393    0.83987    0.38567    1.000
    Si2748   Si       0.34641    0.87518    0.60083    1.000
    Si2749   Si       0.28905    0.84453    0.56066    1.000
    N2750    N        0.29488    0.88038    0.53742    1.000
    N2751    N        0.31149    0.84771    0.59975    1.000
    N2752    N        0.36162    0.85521    0.55493    1.000
    N2753    N        0.24914    0.83737    0.57648    1.000
    Si2754   Si       0.33717    0.88884    0.54019    1.000
    Si2755   Si       0.40299    0.86799    0.54279    1.000
    N2756    N        0.42922    0.84226    0.56771    1.000
    Si2757   Si       0.41953    0.84900    0.60988    1.000
    N2758    N        0.39596    0.85826    0.50017    1.000
    N2759    N        0.38932    0.87928    0.61002    1.000
    N2760    N        0.28808    0.88214    0.73855    1.000
    N2761    N        0.28044    0.86259    0.66052    1.000
    Si2762   Si       0.33503    0.87777    0.73518    1.000
    N2763    N        0.35598    0.86295    0.69892    1.000
    N2764    N        0.24408    0.83435    0.71781    1.000
    Si2765   Si       0.24098    0.85186    0.67570    1.000
    N2766    N        0.42027    0.86136    0.72425    1.000
    N2767    N        0.45106    0.86411    0.63792    1.000
    Si2768   Si       0.39079    0.88586    0.70501    1.000
    N2769    N        0.31771    0.86339    0.84043    1.000
    N2770    N        0.34273    0.85993    0.77584    1.000
    N2771    N        0.27793    0.84891    0.79266    1.000
    Si2772   Si       0.30968    0.87753    0.79992    1.000
    Si2773   Si       0.27784    0.83851    0.74904    1.000
    Si2774   Si       0.34329    0.88672    0.87007    1.000
    Si2775   Si       0.46971    0.84364    0.82501    1.000
    Si2776   Si       0.43788    0.87101    0.76346    1.000
    Si2777   Si       0.40788    0.86772    0.82577    1.000
    N2778    N        0.44714    0.87771    0.84339    1.000
    N2779    N        0.44432    0.83742    0.79091    1.000
    N2780    N        0.40853    0.89093    0.79068    1.000
    Si2781   Si       0.24287    0.88328    0.93749    1.000
    Si2782   Si       0.31770    0.85711    0.93939    1.000
    N2783    N        0.34563    0.86374    0.90576    1.000
    N2784    N        0.27459    0.84948    0.93616    1.000
    Si2785   Si       0.24132    0.85024    0.99438    1.000
    N2786    N        0.41576    0.85447    0.90369    1.000
    N2787    N        0.37958    0.85669    0.96764    1.000
    Si2788   Si       0.38294    0.86909    0.92530    1.000
    Si2789   Si       0.42594    0.88951    0.87879    1.000
    N2790    N        0.30492    0.92991    0.01854    1.000
    Si2791   Si       0.29086    0.91314    0.05703    1.000
    N2792    N        0.24817    0.92138    0.05035    1.000
    Si2793   Si       0.35154    0.93509    0.09199    1.000
    N2794    N        0.30886    0.93608    0.09123    1.000
    Si2795   Si       0.40257    0.92143    0.05520    1.000
    Si2796   Si       0.46479    0.91240    0.01144    1.000
    N2797    N        0.47645    0.89741    0.05537    1.000
    N2798    N        0.43069    0.94096    0.02359    1.000
    N2799    N        0.37467    0.89683    0.09098    1.000
    N2800    N        0.42986    0.94053    0.08520    1.000
    N2801    N        0.23744    0.90725    0.15410    1.000
    Si2802   Si       0.32436    0.92588    0.20274    1.000
    N2803    N        0.28050    0.92622    0.20275    1.000
    N2804    N        0.32972    0.94072    0.16337    1.000
    N2805    N        0.34284    0.89012    0.21766    1.000
    N2806    N        0.46895    0.92263    0.18856    1.000
    Si2807   Si       0.42577    0.91563    0.18691    1.000
    Si2808   Si       0.48133    0.94642    0.15385    1.000
    N2809    N        0.41271    0.91106    0.14492    1.000
    Si2810   Si       0.34924    0.92939    0.33021    1.000
    N2811    N        0.30789    0.92848    0.33957    1.000
    N2812    N        0.24717    0.93014    0.30490    1.000
    N2813    N        0.35867    0.94649    0.29007    1.000
    N2814    N        0.41560    0.91767    0.32363    1.000
    Si2815   Si       0.45552    0.90810    0.28535    1.000
    N2816    N        0.43452    0.94232    0.26761    1.000
    Si2817   Si       0.41172    0.93225    0.36277    1.000
    N2818    N        0.47736    0.89509    0.24843    1.000
    N2819    N        0.48839    0.90943    0.31428    1.000
    Si2820   Si       0.40236    0.94834    0.29627    1.000
    N2821    N        0.31561    0.93509    0.41215    1.000
    N2822    N        0.25108    0.92369    0.39248    1.000
    Si2823   Si       0.29169    0.93964    0.45687    1.000
    Si2824   Si       0.29335    0.91715    0.37932    1.000
    N2825    N        0.29616    0.89634    0.46131    1.000
    N2826    N        0.41694    0.90886    0.39732    1.000
    N2827    N        0.46473    0.94925    0.43563    1.000
    Si2828   Si       0.42363    0.93302    0.43376    1.000
    N2829    N        0.41547    0.91117    0.46940    1.000
    N2830    N        0.33911    0.91097    0.57745    1.000
    Si2831   Si       0.26227    0.91219    0.53202    1.000
    Si2832   Si       0.30987    0.93811    0.59307    1.000
    N2833    N        0.35288    0.91118    0.50663    1.000
    Si2834   Si       0.24636    0.93345    0.59282    1.000
    N2835    N        0.27626    0.94697    0.56273    1.000
    N2836    N        0.27102    0.94678    0.50034    1.000
    N2837    N        0.46742    0.94070    0.50294    1.000
    N2838    N        0.43003    0.90344    0.53868    1.000
    Si2839   Si       0.45456    0.93955    0.54586    1.000
    Si2840   Si       0.44608    0.89969    0.49744    1.000
    N2841    N        0.27932    0.92160    0.61979    1.000
    Si2842   Si       0.29668    0.90238    0.65546    1.000
    N2843    N        0.28507    0.92632    0.68991    1.000
    Si2844   Si       0.25759    0.90530    0.71819    1.000
    N2845    N        0.33851    0.90039    0.64325    1.000
    N2846    N        0.23616    0.94399    0.73130    1.000
    N2847    N        0.40888    0.90356    0.67074    1.000
    N2848    N        0.45721    0.93327    0.62107    1.000
    N2849    N        0.47486    0.92035    0.68488    1.000
    Si2850   Si       0.37995    0.91116    0.63921    1.000
    Si2851   Si       0.44909    0.90441    0.65195    1.000
    N2852    N        0.36666    0.91053    0.73444    1.000
    N2853    N        0.28971    0.91655    0.80157    1.000
    Si2854   Si       0.25394    0.92478    0.82286    1.000
    N2855    N        0.35483    0.93083    0.79979    1.000
    N2856    N        0.33263    0.92859    0.86578    1.000
    N2857    N        0.26446    0.94882    0.85980    1.000
    Si2858   Si       0.36886    0.93564    0.84028    1.000
    Si2859   Si       0.38673    0.92183    0.77217    1.000
    Si2860   Si       0.45931    0.94206    0.77089    1.000
    N2861    N        0.46316    0.90384    0.75258    1.000
    Si2862   Si       0.48369    0.90274    0.83235    1.000
    N2863    N        0.38617    0.89631    0.85647    1.000
    N2864    N        0.48560    0.93723    0.80669    1.000
    N2865    N        0.32284    0.89549    0.95991    1.000
    Si2866   Si       0.29028    0.90495    0.98670    1.000
    Si2867   Si       0.35393    0.92443    0.95259    1.000
    N2868    N        0.25824    0.91793    0.95987    1.000
    Si2869   Si       0.48950    0.91980    0.90752    1.000
    N2870    N        0.44662    0.92162    0.89800    1.000
    N2871    N        0.38767    0.91324    0.92883    1.000
    N2872    N        0.37079    0.94223    0.98719    1.000
    Si2873   Si       0.41570    0.94366    0.91958    1.000
    N2874    N        0.27786    0.98403    0.05828    1.000
    Si2875   Si       0.28291    0.96932    0.10103    1.000
    N2876    N        0.33051    0.99423    0.00762    1.000
    Si2877   Si       0.24629    0.96289    0.03384    1.000
    Si2878   Si       0.34099    0.95288    0.01710    1.000
    N2879    N        0.24111    0.97145    0.11425    1.000
    Si2880   Si       0.44831    0.96772    0.05522    1.000
    N2881    N        0.37201    0.96407    0.11772    1.000
    N2882    N        0.43549    0.00783    0.05215    1.000
    N2883    N        0.36526    0.94488    0.05146    1.000
    N2884    N        0.31190    0.99556    0.12100    1.000
    N2885    N        0.34278    0.95963    0.22553    1.000
    Si2886   Si       0.34213    0.97656    0.14569    1.000
    N2887    N        0.26028    0.99813    0.21969    1.000
    Si2888   Si       0.24864    0.95575    0.20880    1.000
    Si2889   Si       0.41265    0.94950    0.12643    1.000
    N2890    N        0.40828    0.95308    0.20176    1.000
    N2891    N        0.46718    0.99481    0.23213    1.000
    Si2892   Si       0.37505    0.98208    0.20899    1.000
    N2893    N        0.36502    0.00386    0.17217    1.000
    Si2894   Si       0.43444    0.96906    0.23503    1.000
    N2895    N        0.44543    0.97124    0.14299    1.000
    N2896    N        0.40586    0.00511    0.23471    1.000
    N2897    N        0.29560    0.97371    0.27893    1.000
    Si2898   Si       0.33621    0.97458    0.26438    1.000
    N2899    N        0.27770    0.98540    0.34667    1.000
    Si2900   Si       0.28229    0.95650    0.31569    1.000
    Si2901   Si       0.26950    0.00471    0.26098    1.000
    Si2902   Si       0.35780    0.99577    0.36788    1.000
    N2903    N        0.40829    0.98969    0.30922    1.000
    Si2904   Si       0.42325    0.99795    0.34970    1.000
    N2905    N        0.37177    0.95587    0.35721    1.000
    N2906    N        0.44169    0.96333    0.36893    1.000
    N2907    N        0.33124    0.96080    0.46858    1.000
    N2908    N        0.26285    0.97021    0.43993    1.000
    N2909    N        0.34072    0.99509    0.40817    1.000
    Si2910   Si       0.34843    0.95795    0.42533    1.000
    Si2911   Si       0.24555    0.98419    0.47909    1.000
    Si2912   Si       0.47544    0.96467    0.39523    1.000
    Si2913   Si       0.39940    0.99305    0.46556    1.000
    N2914    N        0.39073    0.96111    0.43742    1.000
    N2915    N        0.32859    0.97734    0.53588    1.000
    Si2916   Si       0.28671    0.97212    0.53073    1.000
    N2917    N        0.32553    0.97656    0.60672    1.000
    Si2918   Si       0.35305    0.95539    0.50571    1.000
    Si2919   Si       0.33480    0.00143    0.57114    1.000
    N2920    N        0.26933    0.00731    0.51323    1.000
    Si2921   Si       0.36708    0.98240    0.61820    1.000
    N2922    N        0.43505    0.97200    0.56642    1.000
    Si2923   Si       0.42924    0.96403    0.60927    1.000
    N2924    N        0.39318    0.97670    0.50661    1.000
    Si2925   Si       0.40522    0.99628    0.54501    1.000
    N2926    N        0.37752    0.00083    0.57991    1.000
    N2927    N        0.39206    0.94639    0.62117    1.000
    N2928    N        0.32251    0.98718    0.69994    1.000
    Si2929   Si       0.28763    0.96423    0.71130    1.000
    N2930    N        0.25755    0.99186    0.69500    1.000
    Si2931   Si       0.33154    0.99788    0.74203    1.000
    N2932    N        0.43635    0.99030    0.70406    1.000
    Si2933   Si       0.47964    0.99195    0.71523    1.000
    N2934    N        0.43456    0.00055    0.63268    1.000
    Si2935   Si       0.41541    0.98795    0.74146    1.000
    N2936    N        0.37020    0.00649    0.65560    1.000
    N2937    N        0.31967    0.98260    0.82583    1.000
    N2938    N        0.30429    0.96519    0.75442    1.000
    Si2939   Si       0.30456    0.96190    0.86167    1.000
    Si2940   Si       0.31736    0.95049    0.79360    1.000
    N2941    N        0.39484    0.96825    0.84336    1.000
    N2942    N        0.41739    0.95109    0.76597    1.000
    N2943    N        0.37313    0.99983    0.74484    1.000
    N2944    N        0.48795    0.96847    0.75056    1.000
    Si2945   Si       0.23833    0.95645    0.96065    1.000
    N2946    N        0.30604    0.99598    0.89052    1.000
    N2947    N        0.25035    0.97550    0.92419    1.000
    N2948    N        0.33328    0.95858    0.93590    1.000
    Si2949   Si       0.34650    0.99396    0.91181    1.000
    N2950    N        0.25318    0.98156    0.99402    1.000
    N2951    N        0.43357    0.95469    0.95658    1.000
    Si2952   Si       0.39808    0.00310    0.87074    1.000
    Si2953   Si       0.40765    0.96124    0.99234    1.000
    N2954    N        0.39029    0.97824    0.90725    1.000
    Si2955   Si       0.47523    0.96438    0.96009    1.000
    N2956    N        0.39937    0.00363    0.99521    1.000
    N2957    N        0.52119    0.03334    0.06241    1.000
    N2958    N        0.59700    0.01737    0.10416    1.000
    N2959    N        0.55501    0.03236    0.00519    1.000
    Si2960   Si       0.49542    0.05291    0.09038    1.000
    Si2961   Si       0.54484    0.06037    0.03894    1.000
    Si2962   Si       0.60543    0.05172    0.07560    1.000
    N2963    N        0.61481    0.02033    0.04614    1.000
    Si2964   Si       0.71328    0.04861    0.05364    1.000
    N2965    N        0.66058    0.01280    0.00094    1.000
    N2966    N        0.69789    0.00858    0.06005    1.000
    Si2967   Si       0.65671    0.00396    0.04298    1.000
    N2968    N        0.59201    0.04974    0.22335    1.000
    N2969    N        0.52422    0.02661    0.22264    1.000
    Si2970   Si       0.59415    0.02357    0.14792    1.000
    Si2971   Si       0.55329    0.04833    0.20169    1.000
    N2972    N        0.55275    0.03488    0.15902    1.000
    N2973    N        0.69586    0.00951    0.15684    1.000
    Si2974   Si       0.66347    0.01959    0.18317    1.000
    N2975    N        0.67037    0.05204    0.21199    1.000
    N2976    N        0.63373    0.03930    0.15726    1.000
    Si2977   Si       0.71905    0.04157    0.13488    1.000
    N2978    N        0.56105    0.03293    0.29102    1.000
    Si2979   Si       0.59133    0.02307    0.26012    1.000
    N2980    N        0.52248    0.01662    0.35328    1.000
    Si2981   Si       0.52506    0.01155    0.30820    1.000
    Si2982   Si       0.50119    0.05198    0.24802    1.000
    N2983    N        0.49379    0.03468    0.28790    1.000
    N2984    N        0.58034    0.04882    0.36964    1.000
    Si2985   Si       0.61818    0.03214    0.36096    1.000
    Si2986   Si       0.65823    0.02565    0.30860    1.000
    N2987    N        0.63403    0.02050    0.27154    1.000
    Si2988   Si       0.72515    0.05390    0.33162    1.000
    N2989    N        0.69039    0.05887    0.30367    1.000
    N2990    N        0.73200    0.01023    0.34103    1.000
    N2991    N        0.63960    0.06035    0.33815    1.000
    N2992    N        0.49471    0.05673    0.44565    1.000
    N2993    N        0.54675    0.04759    0.48934    1.000
    Si2994   Si       0.55402    0.01580    0.38428    1.000
    Si2995   Si       0.50613    0.06484    0.48663    1.000
    N2996    N        0.60969    0.06416    0.46440    1.000
    N2997    N        0.55175    0.01477    0.42714    1.000
    Si2998   Si       0.54156    0.00934    0.47029    1.000
    N2999    N        0.65963    0.01988    0.46181    1.000
    N3000    N        0.72605    0.03046    0.47654    1.000
    Si3001   Si       0.70571    0.06475    0.40871    1.000
    N3002    N        0.63000    0.02302    0.40114    1.000
    Si3003   Si       0.63705    0.04823    0.43529    1.000
    N3004    N        0.71116    0.02023    0.41020    1.000
    N3005    N        0.53253    0.02644    0.55555    1.000
    Si3006   Si       0.49960    0.05555    0.55502    1.000
    N3007    N        0.60480    0.03379    0.52686    1.000
    Si3008   Si       0.57622    0.06238    0.61829    1.000
    Si3009   Si       0.58665    0.06247    0.49898    1.000
    Si3010   Si       0.56825    0.00853    0.53770    1.000
    N3011    N        0.60315    0.06712    0.58463    1.000
    N3012    N        0.72861    0.04612    0.54820    1.000
    Si3013   Si       0.70852    0.04204    0.58707    1.000
    Si3014   Si       0.70379    0.04136    0.51410    1.000
    N3015    N        0.66580    0.04792    0.58561    1.000
    N3016    N        0.66269    0.05643    0.51528    1.000
    Si3017   Si       0.64596    0.01484    0.50301    1.000
    Si3018   Si       0.63770    0.05661    0.55448    1.000
    Si3019   Si       0.64145    0.05239    0.62206    1.000
    N3020    N        0.56359    0.01847    0.62591    1.000
    Si3021   Si       0.50066    0.05870    0.69195    1.000
    N3022    N        0.54207    0.04441    0.69560    1.000
    Si3023   Si       0.56191    0.05403    0.73307    1.000
    N3024    N        0.58567    0.01728    0.74247    1.000
    Si3025   Si       0.54922    0.00787    0.67113    1.000
    Si3026   Si       0.63113    0.06520    0.73660    1.000
    N3027    N        0.67201    0.06782    0.65377    1.000
    N3028    N        0.63840    0.01203    0.63938    1.000
    Si3029   Si       0.73071    0.01545    0.69014    1.000
    Si3030   Si       0.66502    0.01757    0.67676    1.000
    N3031    N        0.63441    0.04158    0.70058    1.000
    N3032    N        0.70410    0.03630    0.71527    1.000
    Si3033   Si       0.70016    0.06782    0.74291    1.000
    N3034    N        0.53197    0.04920    0.83946    1.000
    Si3035   Si       0.59732    0.05034    0.84265    1.000
    Si3036   Si       0.51703    0.04394    0.79948    1.000
    N3037    N        0.58399    0.01884    0.81853    1.000
    Si3038   Si       0.60547    0.01474    0.78192    1.000
    N3039    N        0.54196    0.06447    0.76949    1.000
    N3040    N        0.64068    0.05237    0.84307    1.000
    N3041    N        0.63156    0.04853    0.77586    1.000
    Si3042   Si       0.67747    0.04212    0.85904    1.000
    N3043    N        0.69944    0.05689    0.78628    1.000
    Si3044   Si       0.70991    0.01618    0.79832    1.000
    N3045    N        0.69473    0.00777    0.83760    1.000
    N3046    N        0.58976    0.04762    0.88532    1.000
    Si3047   Si       0.54124    0.04445    0.96631    1.000
    N3048    N        0.54350    0.00930    0.93763    1.000
    N3049    N        0.70939    0.03105    0.95852    1.000
    N3050    N        0.67029    0.04289    0.90079    1.000
    Si3051   Si       0.69065    0.01277    0.92419    1.000
    Si3052   Si       0.68123    0.05156    0.98479    1.000
    N3053    N        0.53030    0.09458    0.01809    1.000
    N3054    N        0.57850    0.08164    0.05590    1.000
    N3055    N        0.52167    0.08099    0.11284    1.000
    Si3056   Si       0.61090    0.11019    0.05437    1.000
    Si3057   Si       0.68402    0.11531    0.02776    1.000
    Si3058   Si       0.67751    0.09539    0.09609    1.000
    N3059    N        0.63507    0.08439    0.08202    1.000
    N3060    N        0.63985    0.11964    0.02048    1.000
    N3061    N        0.69508    0.07174    0.02129    1.000
    N3062    N        0.70961    0.06495    0.09524    1.000
    Si3063   Si       0.54144    0.11138    0.22528    1.000
    Si3064   Si       0.54678    0.08338    0.14795    1.000
    N3065    N        0.53836    0.08728    0.19124    1.000
    N3066    N        0.58825    0.08385    0.13771    1.000
    N3067    N        0.70850    0.11741    0.20058    1.000
    N3068    N        0.66865    0.10098    0.13766    1.000
    Si3069   Si       0.70648    0.07844    0.22004    1.000
    Si3070   Si       0.63295    0.07135    0.22072    1.000
    N3071    N        0.63085    0.10072    0.18984    1.000
    Si3072   Si       0.63001    0.08373    0.14969    1.000
    N3073    N        0.53421    0.09286    0.32950    1.000
    N3074    N        0.58340    0.09861    0.28686    1.000
    N3075    N        0.52549    0.08573    0.25836    1.000
    Si3076   Si       0.54865    0.07411    0.29230    1.000
    Si3077   Si       0.49314    0.10084    0.34394    1.000
    Si3078   Si       0.55906    0.08684    0.36708    1.000
    N3079    N        0.71541    0.10311    0.25810    1.000
    N3080    N        0.64368    0.09426    0.25700    1.000
    Si3081   Si       0.67877    0.09263    0.27917    1.000
    Si3082   Si       0.67142    0.09000    0.34428    1.000
    N3083    N        0.70477    0.07230    0.36649    1.000
    N3084    N        0.54266    0.10280    0.40570    1.000
    N3085    N        0.50955    0.10771    0.48928    1.000
    Si3086   Si       0.50002    0.09044    0.41778    1.000
    N3087    N        0.66725    0.07887    0.42563    1.000
    N3088    N        0.65616    0.12080    0.37081    1.000
    Si3089   Si       0.65389    0.11873    0.41532    1.000
    N3090    N        0.57600    0.09601    0.52567    1.000
    N3091    N        0.51704    0.09574    0.55801    1.000
    Si3092   Si       0.53609    0.11438    0.52401    1.000
    Si3093   Si       0.51266    0.11409    0.59736    1.000
    Si3094   Si       0.59859    0.10448    0.56079    1.000
    N3095    N        0.54224    0.08939    0.62053    1.000
    N3096    N        0.64159    0.10261    0.55114    1.000
    N3097    N        0.72683    0.07376    0.61148    1.000
    Si3098   Si       0.65785    0.09948    0.50722    1.000
    N3099    N        0.69713    0.11233    0.49512    1.000
    N3100    N        0.66611    0.12775    0.61605    1.000
    N3101    N        0.50019    0.10113    0.70188    1.000
    N3102    N        0.59270    0.08458    0.72710    1.000
    N3103    N        0.60600    0.06790    0.64765    1.000
    Si3104   Si       0.58504    0.12669    0.72759    1.000
    N3105    N        0.71899    0.11903    0.66621    1.000
    N3106    N        0.64437    0.12226    0.68012    1.000
    N3107    N        0.66515    0.09065    0.73359    1.000
    Si3108   Si       0.63538    0.07984    0.67765    1.000
    Si3109   Si       0.69638    0.09850    0.63495    1.000
    Si3110   Si       0.55578    0.10020    0.79111    1.000
    N3111    N        0.59258    0.08866    0.81567    1.000
    N3112    N        0.52104    0.10976    0.81798    1.000
    Si3113   Si       0.51727    0.08669    0.85651    1.000
    Si3114   Si       0.70472    0.09132    0.81180    1.000
    N3115    N        0.66384    0.11043    0.80559    1.000
    N3116    N        0.70430    0.07793    0.85380    1.000
    Si3117   Si       0.63417    0.07937    0.80679    1.000
    N3118    N        0.54182    0.09893    0.88956    1.000
    Si3119   Si       0.57467    0.08012    0.90932    1.000
    Si3120   Si       0.50848    0.11161    0.98345    1.000
    Si3121   Si       0.60671    0.09231    0.96646    1.000
    N3122    N        0.50399    0.06801    0.96376    1.000
    N3123    N        0.57037    0.07171    0.95188    1.000
    Si3124   Si       0.71634    0.10431    0.88633    1.000
    N3125    N        0.61258    0.10167    0.91896    1.000
    N3126    N        0.64865    0.07240    0.96431    1.000
    N3127    N        0.67912    0.11170    0.90736    1.000
    Si3128   Si       0.65197    0.07809    0.92093    1.000
    N3129    N        0.52537    0.14060    0.07198    1.000
    N3130    N        0.58944    0.14925    0.04363    1.000
    Si3131   Si       0.54770    0.13169    0.03424    1.000
    N3132    N        0.52640    0.15367    0.00124    1.000
    Si3133   Si       0.60186    0.18295    0.07074    1.000
    Si3134   Si       0.61472    0.15220    0.00459    1.000
    Si3135   Si       0.50931    0.12251    0.10665    1.000
    Si3136   Si       0.67551    0.16975    0.07854    1.000
    N3137    N        0.63551    0.17424    0.09536    1.000
    N3138    N        0.70318    0.14240    0.00076    1.000
    Si3139   Si       0.68008    0.18133    0.00213    1.000
    N3140    N        0.68780    0.12812    0.06980    1.000
    N3141    N        0.53102    0.13521    0.14478    1.000
    Si3142   Si       0.56129    0.16817    0.14064    1.000
    N3143    N        0.59820    0.15934    0.16108    1.000
    N3144    N        0.51691    0.14582    0.21991    1.000
    Si3145   Si       0.51335    0.16039    0.17841    1.000
    N3146    N        0.58159    0.12577    0.22702    1.000
    Si3147   Si       0.68611    0.13091    0.16534    1.000
    Si3148   Si       0.73085    0.13736    0.23236    1.000
    N3149    N        0.72245    0.14527    0.14391    1.000
    Si3150   Si       0.61548    0.14003    0.19643    1.000
    N3151    N        0.66088    0.16503    0.16947    1.000
    Si3152   Si       0.63243    0.18037    0.13790    1.000
    N3153    N        0.63349    0.15634    0.23504    1.000
    N3154    N        0.54540    0.16080    0.31608    1.000
    Si3155   Si       0.52797    0.16660    0.35643    1.000
    N3156    N        0.49324    0.14215    0.35877    1.000
    Si3157   Si       0.57574    0.12927    0.31586    1.000
    N3158    N        0.60501    0.15691    0.29309    1.000
    Si3159   Si       0.61102    0.12694    0.26103    1.000
    N3160    N        0.58756    0.12033    0.35606    1.000
    Si3161   Si       0.67236    0.15397    0.34723    1.000
    N3162    N        0.71486    0.16723    0.25990    1.000
    Si3163   Si       0.71819    0.13629    0.29231    1.000
    N3164    N        0.63627    0.17899    0.35227    1.000
    N3165    N        0.70587    0.17141    0.36764    1.000
    N3166    N        0.68188    0.12442    0.31489    1.000
    N3167    N        0.56584    0.14442    0.46187    1.000
    Si3168   Si       0.56525    0.13833    0.41611    1.000
    N3169    N        0.50194    0.17364    0.47498    1.000
    N3170    N        0.55019    0.17207    0.39492    1.000
    Si3171   Si       0.54281    0.17070    0.48596    1.000
    Si3172   Si       0.60809    0.14830    0.46068    1.000
    N3173    N        0.61296    0.13573    0.41834    1.000
    N3174    N        0.68489    0.14725    0.42501    1.000
    Si3175   Si       0.70909    0.13837    0.45940    1.000
    N3176    N        0.69694    0.17469    0.48626    1.000
    Si3177   Si       0.61789    0.14567    0.37409    1.000
    N3178    N        0.63726    0.13065    0.48606    1.000
    Si3179   Si       0.69493    0.18615    0.40574    1.000
    N3180    N        0.54384    0.15644    0.52685    1.000
    N3181    N        0.51209    0.15735    0.58672    1.000
    Si3182   Si       0.55073    0.16860    0.56808    1.000
    N3183    N        0.58020    0.13899    0.57944    1.000
    Si3184   Si       0.70795    0.14682    0.52154    1.000
    N3185    N        0.66922    0.16520    0.54079    1.000
    Si3186   Si       0.66695    0.13182    0.57350    1.000
    Si3187   Si       0.65415    0.16920    0.49844    1.000
    N3188    N        0.70973    0.12432    0.56388    1.000
    Si3189   Si       0.58004    0.17699    0.67492    1.000
    Si3190   Si       0.52213    0.13756    0.69310    1.000
    N3191    N        0.51934    0.16845    0.72541    1.000
    N3192    N        0.56610    0.14004    0.69101    1.000
    N3193    N        0.49876    0.15339    0.66078    1.000
    N3194    N        0.60920    0.17375    0.64231    1.000
    Si3195   Si       0.70758    0.15706    0.68760    1.000
    Si3196   Si       0.64738    0.15214    0.64746    1.000
    Si3197   Si       0.65709    0.13077    0.71923    1.000
    N3198    N        0.62207    0.14757    0.73514    1.000
    N3199    N        0.69136    0.15564    0.72821    1.000
    N3200    N        0.68096    0.17848    0.66133    1.000
    Si3201   Si       0.54200    0.16961    0.76246    1.000
    Si3202   Si       0.50053    0.14778    0.82382    1.000
    N3203    N        0.52330    0.17494    0.80063    1.000
    N3204    N        0.56124    0.13116    0.76140    1.000
    N3205    N        0.50655    0.15177    0.86934    1.000
    Si3206   Si       0.71311    0.17453    0.76170    1.000
    N3207    N        0.70553    0.16342    0.80367    1.000
    N3208    N        0.65201    0.16210    0.85412    1.000
    Si3209   Si       0.66262    0.15353    0.81187    1.000
    Si3210   Si       0.73516    0.16420    0.83591    1.000
    N3211    N        0.56667    0.16113    0.90810    1.000
    Si3212   Si       0.59993    0.14497    0.92909    1.000
    Si3213   Si       0.53006    0.13856    0.90360    1.000
    N3214    N        0.59656    0.13475    0.97119    1.000
    N3215    N        0.50518    0.13581    0.93901    1.000
    N3216    N        0.63838    0.16417    0.92752    1.000
    N3217    N        0.71900    0.14602    0.87341    1.000
    Si3218   Si       0.66800    0.15155    0.89419    1.000
    N3219    N        0.54119    0.20521    0.03974    1.000
    Si3220   Si       0.51520    0.19541    0.00452    1.000
    Si3221   Si       0.56902    0.23619    0.03026    1.000
    N3222    N        0.49920    0.19516    0.10426    1.000
    N3223    N        0.60439    0.22464    0.05390    1.000
    Si3224   Si       0.49363    0.23793    0.11162    1.000
    N3225    N        0.56871    0.18396    0.10115    1.000
    Si3226   Si       0.53055    0.18509    0.07566    1.000
    Si3227   Si       0.70496    0.22326    0.06544    1.000
    N3228    N        0.70735    0.19544    0.10096    1.000
    N3229    N        0.68348    0.19328    0.04361    1.000
    N3230    N        0.53924    0.19385    0.16918    1.000
    Si3231   Si       0.53754    0.23505    0.17791    1.000
    N3232    N        0.52483    0.23932    0.21931    1.000
    Si3233   Si       0.56631    0.24042    0.23231    1.000
    N3234    N        0.70285    0.24447    0.22826    1.000
    N3235    N        0.70546    0.21271    0.16936    1.000
    N3236    N        0.63683    0.22308    0.15043    1.000
    Si3237   Si       0.66543    0.20710    0.18164    1.000
    N3238    N        0.64529    0.21993    0.21624    1.000
    Si3239   Si       0.72426    0.18738    0.13909    1.000
    N3240    N        0.51485    0.20693    0.35789    1.000
    N3241    N        0.58702    0.21847    0.31205    1.000
    N3242    N        0.52148    0.21514    0.28475    1.000
    Si3243   Si       0.50837    0.22982    0.32216    1.000
    Si3244   Si       0.55955    0.19223    0.28701    1.000
    Si3245   Si       0.49836    0.23362    0.25234    1.000
    N3246    N        0.58114    0.20300    0.24805    1.000
    N3247    N        0.64698    0.20538    0.28285    1.000
    N3248    N        0.71352    0.23065    0.28921    1.000
    Si3249   Si       0.61984    0.19196    0.31263    1.000
    Si3250   Si       0.71978    0.20958    0.25099    1.000
    Si3251   Si       0.67136    0.23757    0.29706    1.000
    Si3252   Si       0.63902    0.21852    0.37138    1.000
    Si3253   Si       0.62428    0.19685    0.24566    1.000
    Si3254   Si       0.53195    0.21413    0.39816    1.000
    Si3255   Si       0.60058    0.22471    0.48071    1.000
    N3256    N        0.49359    0.21727    0.41893    1.000
    N3257    N        0.56196    0.20940    0.48944    1.000
    N3258    N        0.50354    0.24370    0.48465    1.000
    N3259    N        0.62152    0.18776    0.47547    1.000
    Si3260   Si       0.71211    0.21333    0.47235    1.000
    N3261    N        0.72275    0.20628    0.42994    1.000
    N3262    N        0.66142    0.21231    0.40733    1.000
    N3263    N        0.67911    0.23887    0.47320    1.000
    N3264    N        0.56679    0.20825    0.58247    1.000
    Si3265   Si       0.60042    0.20030    0.60907    1.000
    N3266    N        0.70474    0.19905    0.60003    1.000
    Si3267   Si       0.67480    0.20192    0.56642    1.000
    N3268    N        0.69020    0.23055    0.53867    1.000
    N3269    N        0.63575    0.20460    0.58568    1.000
    Si3270   Si       0.73147    0.24489    0.53484    1.000
    N3271    N        0.59517    0.24000    0.62796    1.000
    Si3272   Si       0.50347    0.19669    0.65528    1.000
    N3273    N        0.54749    0.20266    0.65761    1.000
    N3274    N        0.59910    0.20322    0.70432    1.000
    Si3275   Si       0.55560    0.24540    0.64360    1.000
    N3276    N        0.72391    0.23121    0.66511    1.000
    Si3277   Si       0.69441    0.21251    0.63936    1.000
    N3278    N        0.55828    0.21150    0.85272    1.000
    Si3279   Si       0.52951    0.21148    0.82026    1.000
    N3280    N        0.57727    0.19589    0.76586    1.000
    Si3281   Si       0.57737    0.23953    0.77647    1.000
    N3282    N        0.53763    0.24518    0.79232    1.000
    N3283    N        0.60802    0.24276    0.80644    1.000
    N3284    N        0.73767    0.20460    0.85557    1.000
    Si3285   Si       0.61796    0.19087    0.74868    1.000
    N3286    N        0.66835    0.23266    0.83060    1.000
    Si3287   Si       0.65011    0.22860    0.79051    1.000
    N3288    N        0.71189    0.21637    0.76212    1.000
    Si3289   Si       0.65675    0.20603    0.86221    1.000
    N3290    N        0.63751    0.23169    0.74863    1.000
    N3291    N        0.64394    0.18299    0.78703    1.000
    Si3292   Si       0.55398    0.20027    0.89589    1.000
    N3293    N        0.57090    0.23052    0.92048    1.000
    N3294    N        0.51844    0.22043    0.96968    1.000
    N3295    N        0.51031    0.20619    0.90480    1.000
    N3296    N        0.58176    0.23027    0.98836    1.000
    Si3297   Si       0.55284    0.24319    0.95787    1.000
    Si3298   Si       0.62360    0.22969    0.98461    1.000
    N3299    N        0.63543    0.23310    0.94384    1.000
    Si3300   Si       0.66215    0.19903    0.93645    1.000
    Si3301   Si       0.73920    0.20911    0.96555    1.000
    Si3302   Si       0.72394    0.18808    0.89267    1.000
    N3303    N        0.69436    0.20298    0.96767    1.000
    N3304    N        0.61998    0.22526    0.87423    1.000
    N3305    N        0.68149    0.19575    0.89681    1.000
    N3306    N        0.63627    0.18821    0.99465    1.000
    N3307    N        0.55121    0.27478    0.03820    1.000
    Si3308   Si       0.50744    0.28022    0.03897    1.000
    N3309    N        0.49588    0.24947    0.06819    1.000
    N3310    N        0.61255    0.28912    0.07257    1.000
    N3311    N        0.67714    0.25785    0.06649    1.000
    Si3312   Si       0.63454    0.25845    0.05095    1.000
    Si3313   Si       0.69776    0.29477    0.07579    1.000
    N3314    N        0.63739    0.26475    0.00800    1.000
    N3315    N        0.73564    0.28420    0.09873    1.000
    N3316    N        0.51255    0.25295    0.14659    1.000
    N3317    N        0.60595    0.28553    0.13998    1.000
    Si3318   Si       0.50782    0.29599    0.15709    1.000
    N3319    N        0.57893    0.24964    0.19260    1.000
    Si3320   Si       0.73097    0.27643    0.22750    1.000
    N3321    N        0.64260    0.28211    0.19596    1.000
    Si3322   Si       0.66218    0.25987    0.22871    1.000
    Si3323   Si       0.61639    0.25709    0.17015    1.000
    N3324    N        0.53745    0.26353    0.32515    1.000
    N3325    N        0.57235    0.26682    0.26440    1.000
    Si3326   Si       0.57674    0.25998    0.30723    1.000
    N3327    N        0.60949    0.28774    0.31685    1.000
    Si3328   Si       0.63571    0.27693    0.34967    1.000
    N3329    N        0.65246    0.27180    0.26878    1.000
    N3330    N        0.71712    0.28870    0.32201    1.000
    N3331    N        0.65720    0.24041    0.33748    1.000
    N3332    N        0.51702    0.29418    0.43870    1.000
    N3333    N        0.55394    0.24923    0.40445    1.000
    Si3334   Si       0.52685    0.28216    0.39772    1.000
    Si3335   Si       0.59394    0.26499    0.41559    1.000
    N3336    N        0.56338    0.27704    0.49213    1.000
    Si3337   Si       0.49038    0.28356    0.47161    1.000
    N3338    N        0.67711    0.28175    0.42166    1.000
    Si3339   Si       0.72197    0.28776    0.41833    1.000
    N3340    N        0.61586    0.25544    0.38045    1.000
    Si3341   Si       0.65772    0.24503    0.43701    1.000
    N3342    N        0.61625    0.24745    0.44810    1.000
    N3343    N        0.58894    0.28418    0.56654    1.000
    N3344    N        0.53462    0.26781    0.61199    1.000
    Si3345   Si       0.56024    0.25152    0.57796    1.000
    N3346    N        0.53163    0.25580    0.54531    1.000
    Si3347   Si       0.59916    0.28237    0.52374    1.000
    Si3348   Si       0.50023    0.28753    0.54799    1.000
    Si3349   Si       0.54121    0.24311    0.50584    1.000
    Si3350   Si       0.49081    0.25655    0.61103    1.000
    Si3351   Si       0.66214    0.25231    0.51242    1.000
    N3352    N        0.65926    0.29468    0.52474    1.000
    N3353    N        0.73105    0.28847    0.52887    1.000
    N3354    N        0.62026    0.24348    0.51648    1.000
    N3355    N        0.69886    0.30313    0.58721    1.000
    N3356    N        0.55545    0.26516    0.68072    1.000
    Si3357   Si       0.54802    0.28739    0.71825    1.000
    N3358    N        0.51049    0.28040    0.73802    1.000
    N3359    N        0.58088    0.26587    0.74023    1.000
    Si3360   Si       0.58964    0.24482    0.70261    1.000
    N3361    N        0.63971    0.30298    0.73694    1.000
    N3362    N        0.63190    0.30028    0.62217    1.000
    N3363    N        0.69812    0.30175    0.65647    1.000
    Si3364   Si       0.62890    0.26203    0.64190    1.000
    Si3365   Si       0.64887    0.26365    0.72059    1.000
    Si3366   Si       0.71149    0.27046    0.68188    1.000
    N3367    N        0.62606    0.26174    0.68507    1.000
    Si3368   Si       0.67569    0.29351    0.62202    1.000
    N3369    N        0.66963    0.24914    0.63086    1.000
    N3370    N        0.69168    0.26692    0.71921    1.000
    N3371    N        0.57403    0.28074    0.85282    1.000
    Si3372   Si       0.50010    0.25254    0.76930    1.000
    Si3373   Si       0.58980    0.24153    0.84691    1.000
    N3374    N        0.72078    0.28453    0.83416    1.000
    Si3375   Si       0.70756    0.25837    0.75821    1.000
    Si3376   Si       0.67729    0.27553    0.83326    1.000
    N3377    N        0.67343    0.27256    0.78430    1.000
    Si3378   Si       0.61079    0.24476    0.91201    1.000
    N3379    N        0.53659    0.28327    0.95704    1.000
    Si3380   Si       0.49390    0.28649    0.96274    1.000
    Si3381   Si       0.63876    0.30683    0.98824    1.000
    N3382    N        0.61654    0.28758    0.90581    1.000
    N3383    N        0.68157    0.28777    0.88375    1.000
    Si3384   Si       0.72409    0.29162    0.87821    1.000
    N3385    N        0.57920    0.34742    0.05070    1.000
    Si3386   Si       0.50920    0.33107    0.09161    1.000
    N3387    N        0.60247    0.34150    0.11479    1.000
    N3388    N        0.54787    0.31235    0.09516    1.000
    N3389    N        0.49265    0.31865    0.05276    1.000
    Si3390   Si       0.57371    0.30539    0.06085    1.000
    N3391    N        0.71576    0.32587    0.05072    1.000
    N3392    N        0.65528    0.32927    0.01934    1.000
    Si3393   Si       0.69266    0.35165    0.02494    1.000
    N3394    N        0.66840    0.31760    0.09939    1.000
    Si3395   Si       0.62879    0.30745    0.10773    1.000
    Si3396   Si       0.55315    0.34268    0.19639    1.000
    N3397    N        0.54358    0.32074    0.16163    1.000
    N3398    N        0.59624    0.34351    0.19656    1.000
    N3399    N        0.53952    0.31389    0.22764    1.000
    Si3400   Si       0.57262    0.31363    0.13009    1.000
    Si3401   Si       0.49687    0.30200    0.22928    1.000
    Si3402   Si       0.68445    0.34495    0.12745    1.000
    N3403    N        0.65420    0.35179    0.22260    1.000
    N3404    N        0.72503    0.33655    0.13928    1.000
    N3405    N        0.70290    0.31049    0.23209    1.000
    Si3406   Si       0.63435    0.32404    0.19175    1.000
    N3407    N        0.65940    0.34624    0.16181    1.000
    N3408    N        0.55312    0.32666    0.29917    1.000
    Si3409   Si       0.56643    0.31076    0.26097    1.000
    N3410    N        0.60415    0.33139    0.25989    1.000
    Si3411   Si       0.52898    0.30594    0.32914    1.000
    N3412    N        0.66356    0.33500    0.29216    1.000
    Si3413   Si       0.68932    0.32211    0.32653    1.000
    N3414    N        0.66063    0.31037    0.35746    1.000
    Si3415   Si       0.68466    0.34170    0.25348    1.000
    N3416    N        0.71608    0.35472    0.33522    1.000
    Si3417   Si       0.63018    0.30429    0.28345    1.000
    N3418    N        0.53803    0.31419    0.37073    1.000
    N3419    N        0.54169    0.34598    0.47588    1.000
    Si3420   Si       0.60333    0.34669    0.42309    1.000
    N3421    N        0.58563    0.30606    0.43106    1.000
    Si3422   Si       0.55253    0.30611    0.46096    1.000
    Si3423   Si       0.50024    0.34711    0.49014    1.000
    Si3424   Si       0.54306    0.35655    0.38056    1.000
    N3425    N        0.71371    0.32596    0.39696    1.000
    N3426    N        0.64674    0.34922    0.41663    1.000
    Si3427   Si       0.67063    0.31796    0.39979    1.000
    N3428    N        0.51236    0.32038    0.57380    1.000
    N3429    N        0.57574    0.33639    0.61206    1.000
    Si3430   Si       0.53944    0.31309    0.60713    1.000
    N3431    N        0.60107    0.32436    0.51166    1.000
    Si3432   Si       0.60726    0.31558    0.59153    1.000
    N3433    N        0.49648    0.30493    0.50892    1.000
    N3434    N        0.63224    0.34416    0.56842    1.000
    Si3435   Si       0.64307    0.33764    0.52544    1.000
    N3436    N        0.69100    0.34809    0.52990    1.000
    Si3437   Si       0.69672    0.30859    0.54499    1.000
    Si3438   Si       0.73763    0.31669    0.60371    1.000
    N3439    N        0.52138    0.33528    0.64014    1.000
    N3440    N        0.56670    0.32524    0.72209    1.000
    N3441    N        0.69640    0.35139    0.70546    1.000
    N3442    N        0.73462    0.34823    0.63320    1.000
    Si3443   Si       0.72565    0.33304    0.67530    1.000
    Si3444   Si       0.66144    0.33970    0.72732    1.000
    N3445    N        0.59129    0.34212    0.85464    1.000
    N3446    N        0.54085    0.33457    0.81034    1.000
    Si3447   Si       0.57541    0.31240    0.82250    1.000
    N3448    N        0.60392    0.31452    0.78970    1.000
    Si3449   Si       0.50646    0.35069    0.83093    1.000
    Si3450   Si       0.59759    0.30469    0.74756    1.000
    Si3451   Si       0.63405    0.34544    0.84829    1.000
    N3452    N        0.66929    0.34531    0.77042    1.000
    N3453    N        0.65294    0.31174    0.82905    1.000
    Si3454   Si       0.64794    0.30932    0.78512    1.000
    Si3455   Si       0.58380    0.31143    0.88585    1.000
    N3456    N        0.57314    0.33641    0.92191    1.000
    Si3457   Si       0.56064    0.32065    0.96157    1.000
    N3458    N        0.54093    0.34881    0.98747    1.000
    N3459    N        0.59817    0.31510    0.98160    1.000
    N3460    N        0.73407    0.31195    0.93658    1.000
    N3461    N        0.71365    0.35457    0.98666    1.000
    N3462    N        0.66377    0.31541    0.94959    1.000
    Si3463   Si       0.70173    0.33973    0.94957    1.000
    N3464    N        0.64715    0.34976    0.89001    1.000
    Si3465   Si       0.65475    0.30979    0.90734    1.000
    N3466    N        0.55197    0.40518    0.03459    1.000
    Si3467   Si       0.53168    0.40378    0.07426    1.000
    N3468    N        0.56468    0.40256    0.10060    1.000
    N3469    N        0.50137    0.37583    0.08595    1.000
    Si3470   Si       0.57169    0.37262    0.01347    1.000
    Si3471   Si       0.59207    0.37082    0.08467    1.000
    N3472    N        0.61319    0.39274    0.00963    1.000
    N3473    N        0.62772    0.39211    0.07845    1.000
    N3474    N        0.68348    0.39236    0.03490    1.000
    Si3475   Si       0.64255    0.40671    0.04000    1.000
    Si3476   Si       0.65059    0.40846    0.11039    1.000
    N3477    N        0.73511    0.41204    0.07739    1.000
    N3478    N        0.68758    0.38925    0.12109    1.000
    Si3479   Si       0.49116    0.37360    0.22355    1.000
    N3480    N        0.52897    0.37712    0.20368    1.000
    N3481    N        0.59198    0.40468    0.21759    1.000
    Si3482   Si       0.61306    0.36818    0.23350    1.000
    N3483    N        0.71454    0.38630    0.18952    1.000
    Si3484   Si       0.72360    0.40534    0.22904    1.000
    Si3485   Si       0.67344    0.37636    0.18926    1.000
    N3486    N        0.65136    0.41385    0.19337    1.000
    N3487    N        0.53855    0.38145    0.34217    1.000
    N3488    N        0.55839    0.39513    0.27812    1.000
    N3489    N        0.60420    0.37307    0.32551    1.000
    Si3490   Si       0.56425    0.36798    0.30962    1.000
    Si3491   Si       0.60222    0.39605    0.36311    1.000
    Si3492   Si       0.51071    0.41501    0.33807    1.000
    Si3493   Si       0.52496    0.41984    0.27136    1.000
    N3494    N        0.62544    0.39718    0.26688    1.000
    N3495    N        0.70953    0.37601    0.25972    1.000
    Si3496   Si       0.63945    0.37255    0.29874    1.000
    N3497    N        0.67164    0.39800    0.31338    1.000
    Si3498   Si       0.71255    0.38345    0.30268    1.000
    N3499    N        0.59062    0.37594    0.45309    1.000
    Si3500   Si       0.54625    0.38751    0.44748    1.000
    N3501    N        0.52144    0.40950    0.47727    1.000
    N3502    N        0.52238    0.36966    0.41654    1.000
    N3503    N        0.58584    0.36377    0.38856    1.000
    Si3504   Si       0.59475    0.36335    0.49350    1.000
    N3505    N        0.56348    0.42118    0.42049    1.000
    N3506    N        0.70196    0.39549    0.41738    1.000
    Si3507   Si       0.71863    0.40156    0.45545    1.000
    N3508    N        0.69531    0.40556    0.48876    1.000
    Si3509   Si       0.73228    0.41418    0.38970    1.000
    N3510    N        0.64327    0.40678    0.37345    1.000
    Si3511   Si       0.65135    0.41088    0.48693    1.000
    Si3512   Si       0.65948    0.39095    0.41113    1.000
    N3513    N        0.64195    0.41438    0.44462    1.000
    N3514    N        0.57657    0.39509    0.51690    1.000
    Si3515   Si       0.53308    0.40162    0.51855    1.000
    N3516    N        0.50625    0.36896    0.52769    1.000
    N3517    N        0.55260    0.40182    0.61829    1.000
    Si3518   Si       0.51703    0.41409    0.59477    1.000
    N3519    N        0.60964    0.41015    0.57484    1.000
    Si3520   Si       0.64700    0.38416    0.57762    1.000
    Si3521   Si       0.70437    0.38887    0.52651    1.000
    N3522    N        0.67797    0.40826    0.55808    1.000
    N3523    N        0.63746    0.37170    0.49999    1.000
    N3524    N        0.65991    0.37784    0.61883    1.000
    N3525    N        0.57210    0.37884    0.67917    1.000
    Si3526   Si       0.58288    0.36590    0.71913    1.000
    Si3527   Si       0.55711    0.36418    0.64066    1.000
    N3528    N        0.72857    0.41780    0.66004    1.000
    N3529    N        0.66980    0.40941    0.68486    1.000
    Si3530   Si       0.64170    0.40581    0.71616    1.000
    Si3531   Si       0.71093    0.39569    0.69307    1.000
    Si3532   Si       0.65601    0.41308    0.64340    1.000
    N3533    N        0.62712    0.36407    0.71844    1.000
    N3534    N        0.72974    0.41176    0.73073    1.000
    N3535    N        0.56634    0.39981    0.82067    1.000
    Si3536   Si       0.56193    0.37877    0.85810    1.000
    Si3537   Si       0.54862    0.37547    0.78988    1.000
    N3538    N        0.50599    0.38610    0.79897    1.000
    N3539    N        0.56723    0.38830    0.75323    1.000
    N3540    N        0.52051    0.37252    0.86743    1.000
    Si3541   Si       0.66874    0.38438    0.78837    1.000
    N3542    N        0.70828    0.40108    0.79447    1.000
    N3543    N        0.64774    0.38099    0.82622    1.000
    N3544    N        0.66171    0.41330    0.75354    1.000
    N3545    N        0.73183    0.39313    0.86388    1.000
    N3546    N        0.50235    0.39727    0.94085    1.000
    N3547    N        0.58007    0.40027    0.88938    1.000
    Si3548   Si       0.58854    0.37816    0.92542    1.000
    N3549    N        0.57115    0.40092    0.95844    1.000
    Si3550   Si       0.49025    0.38097    0.89737    1.000
    Si3551   Si       0.50347    0.36493    0.97173    1.000
    Si3552   Si       0.61148    0.41334    0.97164    1.000
    N3553    N        0.62810    0.39147    0.93841    1.000
    Si3554   Si       0.65975    0.38644    0.90945    1.000
    N3555    N        0.70059    0.37559    0.92531    1.000
    Si3556   Si       0.71641    0.40918    0.90023    1.000
    N3557    N        0.51584    0.44399    0.06754    1.000
    Si3558   Si       0.54260    0.44793    0.03047    1.000
    N3559    N        0.56653    0.47340    0.11012    1.000
    N3560    N        0.57327    0.47693    0.03480    1.000
    Si3561   Si       0.52433    0.47485    0.09807    1.000
    Si3562   Si       0.61289    0.47484    0.01989    1.000
    N3563    N        0.70477    0.46092    0.04382    1.000
    N3564    N        0.63651    0.44857    0.04651    1.000
    N3565    N        0.67270    0.44602    0.10435    1.000
    Si3566   Si       0.66857    0.46962    0.06775    1.000
    Si3567   Si       0.70980    0.42710    0.11004    1.000
    Si3568   Si       0.71858    0.41784    0.03762    1.000
    Si3569   Si       0.57779    0.43361    0.12681    1.000
    N3570    N        0.50299    0.44008    0.19695    1.000
    N3571    N        0.54988    0.44308    0.24134    1.000
    N3572    N        0.56484    0.42763    0.16881    1.000
    Si3573   Si       0.60841    0.42475    0.18166    1.000
    Si3574   Si       0.54202    0.41930    0.20448    1.000
    N3575    N        0.62000    0.46585    0.18311    1.000
    N3576    N        0.70404    0.44279    0.22779    1.000
    N3577    N        0.73130    0.45590    0.13452    1.000
    N3578    N        0.62114    0.42594    0.13706    1.000
    Si3579   Si       0.66383    0.45373    0.20894    1.000
    N3580    N        0.67749    0.47369    0.17118    1.000
    Si3581   Si       0.64498    0.46484    0.14405    1.000
    N3582    N        0.58405    0.43473    0.35452    1.000
    Si3583   Si       0.60423    0.46341    0.32747    1.000
    N3584    N        0.59904    0.45803    0.28374    1.000
    N3585    N        0.51482    0.44332    0.30538    1.000
    Si3586   Si       0.58771    0.42271    0.25812    1.000
    Si3587   Si       0.66726    0.43006    0.34306    1.000
    N3588    N        0.64736    0.46522    0.32918    1.000
    N3589    N        0.70986    0.42936    0.35753    1.000
    N3590    N        0.70600    0.46866    0.29725    1.000
    Si3591   Si       0.73107    0.44792    0.32392    1.000
    Si3592   Si       0.70118    0.47691    0.25570    1.000
    N3593    N        0.65614    0.47761    0.24492    1.000
    N3594    N        0.51506    0.43861    0.37581    1.000
    N3595    N        0.58960    0.44975    0.47135    1.000
    Si3596   Si       0.55547    0.44801    0.38796    1.000
    Si3597   Si       0.60008    0.42052    0.44362    1.000
    Si3598   Si       0.49894    0.44734    0.47750    1.000
    N3599    N        0.59055    0.46816    0.60682    1.000
    N3600    N        0.53080    0.42767    0.55439    1.000
    N3601    N        0.49579    0.44687    0.61580    1.000
    Si3602   Si       0.53393    0.46958    0.54350    1.000
    Si3603   Si       0.58835    0.42486    0.60901    1.000
    N3604    N        0.52686    0.47270    0.49901    1.000
    N3605    N        0.57867    0.46867    0.53648    1.000
    Si3606   Si       0.59994    0.42792    0.53481    1.000
    N3607    N        0.63791    0.43742    0.51722    1.000
    Si3608   Si       0.66758    0.44985    0.54796    1.000
    N3609    N        0.64056    0.47470    0.57348    1.000
    Si3610   Si       0.65305    0.48063    0.61497    1.000
    N3611    N        0.56548    0.46204    0.67160    1.000
    Si3612   Si       0.53645    0.47359    0.69986    1.000
    N3613    N        0.49787    0.45206    0.69328    1.000
    N3614    N        0.60550    0.42715    0.71352    1.000
    N3615    N        0.54668    0.45433    0.73724    1.000
    Si3616   Si       0.58348    0.42110    0.67808    1.000
    N3617    N        0.61382    0.41873    0.64446    1.000
    Si3618   Si       0.71526    0.45450    0.64118    1.000
    N3619    N        0.67750    0.44591    0.62371    1.000
    N3620    N        0.59618    0.44889    0.78357    1.000
    N3621    N        0.53314    0.46275    0.80988    1.000
    N3622    N        0.58367    0.45842    0.85517    1.000
    Si3623   Si       0.57250    0.44263    0.81813    1.000
    Si3624   Si       0.50353    0.43014    0.80596    1.000
    Si3625   Si       0.52632    0.47374    0.76854    1.000
    Si3626   Si       0.58140    0.43080    0.74799    1.000
    N3627    N        0.70952    0.46797    0.76990    1.000
    Si3628   Si       0.70251    0.42754    0.75889    1.000
    Si3629   Si       0.53664    0.42619    0.95307    1.000
    Si3630   Si       0.58009    0.44332    0.89470    1.000
    N3631    N        0.54943    0.45490    0.92287    1.000
    N3632    N        0.52478    0.44833    0.98799    1.000
    Si3633   Si       0.73784    0.44450    0.96655    1.000
    N3634    N        0.70610    0.47232    0.97341    1.000
    N3635    N        0.61681    0.46047    0.91199    1.000
    N3636    N        0.61695    0.45584    0.98269    1.000
    Si3637   Si       0.65454    0.46491    0.88815    1.000
    N3638    N        0.67410    0.42393    0.89167    1.000
    N3639    N        0.52383    0.51031    0.07028    1.000
    Si3640   Si       0.56486    0.51836    0.05384    1.000
    Si3641   Si       0.58859    0.51178    0.11793    1.000
    Si3642   Si       0.49005    0.52036    0.04490    1.000
    N3643    N        0.61469    0.52009    0.01962    1.000
    Si3644   Si       0.66233    0.52428    0.10866    1.000
    N3645    N        0.66492    0.51127    0.06715    1.000
    Si3646   Si       0.70947    0.49300    0.01464    1.000
    N3647    N        0.68340    0.52688    0.00514    1.000
    Si3648   Si       0.55399    0.48640    0.23788    1.000
    Si3649   Si       0.60800    0.50694    0.18644    1.000
    N3650    N        0.53278    0.50287    0.20388    1.000
    N3651    N        0.57529    0.51979    0.15955    1.000
    N3652    N        0.59285    0.50212    0.22801    1.000
    Si3653   Si       0.50425    0.47964    0.17927    1.000
    N3654    N        0.50403    0.47833    0.13556    1.000
    N3655    N        0.70304    0.51783    0.12326    1.000
    Si3656   Si       0.71356    0.48900    0.15349    1.000
    N3657    N        0.62949    0.50008    0.12467    1.000
    N3658    N        0.53990    0.50247    0.27564    1.000
    N3659    N        0.59202    0.50307    0.34259    1.000
    N3660    N        0.49231    0.51659    0.31095    1.000
    Si3661   Si       0.50464    0.48100    0.28940    1.000
    Si3662   Si       0.52357    0.53975    0.29143    1.000
    Si3663   Si       0.61711    0.49131    0.26280    1.000
    N3664    N        0.61898    0.52778    0.28721    1.000
    N3665    N        0.67991    0.51980    0.34606    1.000
    Si3666   Si       0.67526    0.49621    0.31192    1.000
    N3667    N        0.68345    0.52696    0.27834    1.000
    N3668    N        0.73557    0.50423    0.24696    1.000
    N3669    N        0.56195    0.48674    0.40529    1.000
    N3670    N        0.51129    0.53186    0.43972    1.000
    N3671    N        0.57323    0.51876    0.47133    1.000
    Si3672   Si       0.55136    0.51991    0.43296    1.000
    Si3673   Si       0.58795    0.51446    0.38463    1.000
    Si3674   Si       0.56973    0.48018    0.49262    1.000
    N3675    N        0.68642    0.50086    0.43644    1.000
    Si3676   Si       0.65631    0.53110    0.42840    1.000
    N3677    N        0.62887    0.51723    0.39821    1.000
    Si3678   Si       0.72506    0.48743    0.42554    1.000
    N3679    N        0.53656    0.49932    0.58235    1.000
    Si3680   Si       0.59899    0.49046    0.56903    1.000
    Si3681   Si       0.49495    0.48383    0.59150    1.000
    Si3682   Si       0.54376    0.53459    0.60665    1.000
    N3683    N        0.61618    0.52993    0.56642    1.000
    N3684    N        0.67559    0.51516    0.60340    1.000
    Si3685   Si       0.66193    0.51760    0.56181    1.000
    N3686    N        0.73427    0.52842    0.50616    1.000
    Si3687   Si       0.73256    0.50212    0.54138    1.000
    N3688    N        0.69295    0.48458    0.54099    1.000
    N3689    N        0.57648    0.52837    0.63637    1.000
    Si3690   Si       0.59141    0.48799    0.64661    1.000
    N3691    N        0.52715    0.51697    0.71438    1.000
    Si3692   Si       0.66733    0.50626    0.67872    1.000
    Si3693   Si       0.62634    0.53060    0.73074    1.000
    N3694    N        0.70642    0.48436    0.67101    1.000
    N3695    N        0.63610    0.49185    0.65203    1.000
    N3696    N        0.65667    0.49959    0.72047    1.000
    N3697    N        0.52511    0.51712    0.77846    1.000
    N3698    N        0.58206    0.50952    0.81796    1.000
    Si3699   Si       0.59688    0.49912    0.85701    1.000
    Si3700   Si       0.53905    0.50721    0.81776    1.000
    Si3701   Si       0.60677    0.49384    0.78557    1.000
    N3702    N        0.51816    0.53130    0.84719    1.000
    N3703    N        0.59226    0.51306    0.75025    1.000
    Si3704   Si       0.55250    0.53237    0.74748    1.000
    N3705    N        0.64937    0.49834    0.78800    1.000
    Si3706   Si       0.66727    0.51288    0.82448    1.000
    Si3707   Si       0.68037    0.49646    0.75709    1.000
    N3708    N        0.70628    0.49529    0.83511    1.000
    N3709    N        0.64206    0.49526    0.85793    1.000
    N3710    N        0.70163    0.53439    0.75775    1.000
    Si3711   Si       0.73366    0.47946    0.80609    1.000
    N3712    N        0.51639    0.51402    0.93392    1.000
    Si3713   Si       0.55517    0.49857    0.92448    1.000
    N3714    N        0.57137    0.51579    0.88751    1.000
    N3715    N        0.58145    0.50595    0.95926    1.000
    Si3716   Si       0.58561    0.53508    0.99012    1.000
    Si3717   Si       0.61676    0.48385    0.94940    1.000
    N3718    N        0.71647    0.53628    0.94782    1.000
    N3719    N        0.69004    0.48355    0.90455    1.000
    Si3720   Si       0.69061    0.50089    0.94404    1.000
    N3721    N        0.64871    0.51196    0.94642    1.000
    Si3722   Si       0.71619    0.50500    0.87880    1.000
    Si3723   Si       0.52029    0.56957    0.01351    1.000
    N3724    N        0.53118    0.58830    0.10084    1.000
    Si3725   Si       0.57414    0.58450    0.10385    1.000
    N3726    N        0.58091    0.54259    0.08812    1.000
    N3727    N        0.55024    0.53854    0.01702    1.000
    Si3728   Si       0.49748    0.59908    0.07237    1.000
    Si3729   Si       0.73404    0.54741    0.11182    1.000
    Si3730   Si       0.67423    0.59253    0.08615    1.000
    N3731    N        0.66201    0.58156    0.04441    1.000
    N3732    N        0.71625    0.57982    0.08886    1.000
    N3733    N        0.65399    0.56581    0.11552    1.000
    Si3734   Si       0.65390    0.53927    0.03585    1.000
    Si3735   Si       0.54318    0.53864    0.18186    1.000
    Si3736   Si       0.50213    0.58746    0.13338    1.000
    N3737    N        0.50677    0.55347    0.16181    1.000
    N3738    N        0.59678    0.58425    0.14361    1.000
    N3739    N        0.55817    0.57372    0.20391    1.000
    Si3740   Si       0.54160    0.59327    0.23850    1.000
    Si3741   Si       0.63592    0.57339    0.15379    1.000
    Si3742   Si       0.65942    0.56992    0.21012    1.000
    N3743    N        0.63580    0.54285    0.18464    1.000
    Si3744   Si       0.73419    0.54784    0.18850    1.000
    N3745    N        0.69891    0.55275    0.21470    1.000
    N3746    N        0.55632    0.55927    0.31354    1.000
    N3747    N        0.51334    0.56750    0.26049    1.000
    Si3748   Si       0.59401    0.54066    0.32087    1.000
    N3749    N        0.62273    0.56383    0.34447    1.000
    Si3750   Si       0.65123    0.55470    0.28103    1.000
    Si3751   Si       0.71344    0.58785    0.31200    1.000
    N3752    N        0.66976    0.58447    0.30566    1.000
    N3753    N        0.73209    0.56948    0.34887    1.000
    Si3754   Si       0.71771    0.54194    0.25300    1.000
    N3755    N        0.73743    0.57202    0.27817    1.000
    N3756    N        0.63895    0.58137    0.24668    1.000
    Si3757   Si       0.64778    0.53823    0.36707    1.000
    N3758    N        0.57476    0.58922    0.45939    1.000
    Si3759   Si       0.59644    0.55553    0.47861    1.000
    N3760    N        0.56839    0.54847    0.40443    1.000
    Si3761   Si       0.56323    0.58941    0.41747    1.000
    N3762    N        0.70034    0.58235    0.47912    1.000
    Si3763   Si       0.71108    0.53916    0.37219    1.000
    N3764    N        0.63703    0.55306    0.46139    1.000
    Si3765   Si       0.73488    0.59378    0.45534    1.000
    Si3766   Si       0.65884    0.58878    0.47092    1.000
    N3767    N        0.67867    0.55695    0.39864    1.000
    Si3768   Si       0.59350    0.56740    0.56065    1.000
    N3769    N        0.55578    0.56917    0.58061    1.000
    N3770    N        0.59178    0.57194    0.51765    1.000
    Si3771   Si       0.52643    0.59803    0.56519    1.000
    N3772    N        0.52333    0.59471    0.52111    1.000
    N3773    N        0.73412    0.59359    0.53838    1.000
    N3774    N        0.70257    0.57844    0.60184    1.000
    Si3775   Si       0.71023    0.56363    0.51684    1.000
    N3776    N        0.67671    0.55072    0.53888    1.000
    Si3777   Si       0.73764    0.57483    0.57707    1.000
    Si3778   Si       0.51949    0.57781    0.66394    1.000
    N3779    N        0.51223    0.54511    0.63560    1.000
    Si3780   Si       0.59083    0.56115    0.65995    1.000
    N3781    N        0.55971    0.58120    0.68251    1.000
    Si3782   Si       0.69994    0.54268    0.62635    1.000
    Si3783   Si       0.65028    0.57812    0.67341    1.000
    N3784    N        0.67924    0.54686    0.66402    1.000
    N3785    N        0.62029    0.58842    0.64137    1.000
    N3786    N        0.62057    0.55016    0.69038    1.000
    N3787    N        0.56367    0.57208    0.76133    1.000
    N3788    N        0.57142    0.58165    0.86070    1.000
    N3789    N        0.49722    0.58119    0.79337    1.000
    Si3790   Si       0.60477    0.58930    0.76071    1.000
    Si3791   Si       0.67988    0.56920    0.77409    1.000
    Si3792   Si       0.69353    0.57504    0.84859    1.000
    N3793    N        0.67582    0.55529    0.81497    1.000
    N3794    N        0.64048    0.56619    0.75398    1.000
    N3795    N        0.73332    0.59026    0.84148    1.000
    Si3796   Si       0.54668    0.54992    0.87690    1.000
    N3797    N        0.50037    0.57843    0.97709    1.000
    Si3798   Si       0.50221    0.55596    0.93954    1.000
    N3799    N        0.52499    0.57150    0.90767    1.000
    N3800    N        0.59751    0.57599    0.98197    1.000
    N3801    N        0.69019    0.59723    0.92381    1.000
    N3802    N        0.72366    0.59139    0.98709    1.000
    N3803    N        0.70193    0.54701    0.88080    1.000
    Si3804   Si       0.72004    0.54793    0.98812    1.000
    Si3805   Si       0.71637    0.56579    0.91682    1.000
    N3806    N        0.58146    0.62617    0.09404    1.000
    Si3807   Si       0.52419    0.64345    0.02580    1.000
    Si3808   Si       0.58135    0.60903    0.00604    1.000
    N3809    N        0.54239    0.60421    0.02428    1.000
    Si3810   Si       0.59389    0.64982    0.06069    1.000
    N3811    N        0.61255    0.62260    0.03313    1.000
    N3812    N        0.48794    0.63359    0.04647    1.000
    N3813    N        0.66780    0.63707    0.08920    1.000
    Si3814   Si       0.65372    0.61696    0.01976    1.000
    N3815    N        0.73324    0.63182    0.04580    1.000
    Si3816   Si       0.52041    0.64284    0.17941    1.000
    N3817    N        0.52072    0.62963    0.22258    1.000
    Si3818   Si       0.57896    0.60202    0.17920    1.000
    N3819    N        0.60317    0.62533    0.20745    1.000
    N3820    N        0.56010    0.63868    0.16184    1.000
    Si3821   Si       0.58124    0.65418    0.12834    1.000
    Si3822   Si       0.68469    0.63594    0.18277    1.000
    N3823    N        0.66157    0.60020    0.17796    1.000
    N3824    N        0.71753    0.62816    0.20890    1.000
    N3825    N        0.54521    0.61911    0.34243    1.000
    Si3826   Si       0.58071    0.63539    0.35742    1.000
    Si3827   Si       0.50397    0.63437    0.33427    1.000
    Si3828   Si       0.49823    0.64327    0.25633    1.000
    N3829    N        0.51282    0.62671    0.29372    1.000
    N3830    N        0.57127    0.60516    0.26651    1.000
    Si3831   Si       0.54938    0.60137    0.30374    1.000
    Si3832   Si       0.60982    0.61494    0.24916    1.000
    N3833    N        0.61472    0.63221    0.33097    1.000
    N3834    N        0.72127    0.62977    0.31060    1.000
    N3835    N        0.62432    0.65379    0.26398    1.000
    Si3836   Si       0.64364    0.60047    0.33739    1.000
    N3837    N        0.67109    0.62002    0.36708    1.000
    Si3838   Si       0.50416    0.63711    0.42781    1.000
    N3839    N        0.58520    0.62070    0.39846    1.000
    N3840    N        0.49292    0.63748    0.47134    1.000
    N3841    N        0.51863    0.59770    0.41839    1.000
    N3842    N        0.72139    0.61233    0.41796    1.000
    Si3843   Si       0.68247    0.59986    0.40514    1.000
    N3844    N        0.65584    0.61358    0.43543    1.000
    N3845    N        0.53886    0.63951    0.57289    1.000
    N3846    N        0.57652    0.64030    0.51463    1.000
    Si3847   Si       0.56090    0.60059    0.49924    1.000
    Si3848   Si       0.61591    0.62348    0.52986    1.000
    N3849    N        0.61322    0.60630    0.57093    1.000
    Si3850   Si       0.62259    0.61985    0.61191    1.000
    N3851    N        0.73113    0.64342    0.59709    1.000
    N3852    N        0.64683    0.61353    0.50335    1.000
    Si3853   Si       0.70368    0.61831    0.61780    1.000
    Si3854   Si       0.73994    0.63011    0.51987    1.000
    Si3855   Si       0.66735    0.65132    0.50569    1.000
    N3856    N        0.59767    0.65609    0.62065    1.000
    N3857    N        0.51114    0.61702    0.64459    1.000
    N3858    N        0.60403    0.61910    0.72910    1.000
    N3859    N        0.56178    0.65059    0.68266    1.000
    Si3860   Si       0.56406    0.61590    0.70874    1.000
    N3861    N        0.53013    0.62524    0.73715    1.000
    Si3862   Si       0.52399    0.65331    0.66146    1.000
    Si3863   Si       0.63991    0.63590    0.71217    1.000
    Si3864   Si       0.70891    0.62878    0.69082    1.000
    N3865    N        0.66913    0.60956    0.69545    1.000
    N3866    N        0.72549    0.60606    0.65468    1.000
    N3867    N        0.66261    0.63448    0.62076    1.000
    N3868    N        0.54783    0.62747    0.80428    1.000
    N3869    N        0.60277    0.63543    0.85404    1.000
    Si3870   Si       0.57811    0.60859    0.82656    1.000
    Si3871   Si       0.53318    0.59977    0.77314    1.000
    N3872    N        0.61314    0.60579    0.80044    1.000
    N3873    N        0.49300    0.61082    0.85951    1.000
    N3874    N        0.70463    0.60642    0.76840    1.000
    Si3875   Si       0.64074    0.62478    0.82824    1.000
    Si3876   Si       0.69319    0.65042    0.76827    1.000
    N3877    N        0.66476    0.60480    0.85952    1.000
    N3878    N        0.66605    0.65182    0.80279    1.000
    N3879    N        0.59014    0.63514    0.97208    1.000
    Si3880   Si       0.51451    0.61164    0.89729    1.000
    N3881    N        0.55231    0.63522    0.90129    1.000
    Si3882   Si       0.58709    0.61167    0.88787    1.000
    N3883    N        0.51018    0.65042    0.98513    1.000
    N3884    N        0.61835    0.60142    0.91519    1.000
    Si3885   Si       0.65719    0.61289    0.90066    1.000
    Si3886   Si       0.62004    0.60574    0.95917    1.000
    N3887    N        0.72650    0.65039    0.94780    1.000
    Si3888   Si       0.69856    0.61682    0.96224    1.000
    N3889    N        0.65675    0.60974    0.97729    1.000
    N3890    N        0.66666    0.65365    0.90808    1.000
    N3891    N        0.56072    0.66598    0.03745    1.000
    N3892    N        0.50806    0.69969    0.05918    1.000
    Si3893   Si       0.54650    0.70540    0.03422    1.000
    N3894    N        0.61292    0.68282    0.08048    1.000
    Si3895   Si       0.69901    0.65498    0.06024    1.000
    N3896    N        0.71588    0.68599    0.08601    1.000
    Si3897   Si       0.67507    0.69193    0.00096    1.000
    Si3898   Si       0.64850    0.67171    0.10817    1.000
    N3899    N        0.67806    0.65534    0.02295    1.000
    N3900    N        0.56816    0.69521    0.12515    1.000
    N3901    N        0.59194    0.69190    0.19870    1.000
    N3902    N        0.51212    0.68426    0.17410    1.000
    Si3903   Si       0.54060    0.71309    0.15424    1.000
    N3904    N        0.65708    0.66713    0.19972    1.000
    N3905    N        0.62237    0.65956    0.14169    1.000
    Si3906   Si       0.72798    0.66711    0.12313    1.000
    N3907    N        0.69390    0.66359    0.14916    1.000
    Si3908   Si       0.61665    0.66057    0.18562    1.000
    Si3909   Si       0.71944    0.70026    0.23576    1.000
    Si3910   Si       0.65090    0.67990    0.24092    1.000
    N3911    N        0.71451    0.71099    0.19447    1.000
    Si3912   Si       0.67798    0.70042    0.17451    1.000
    N3913    N        0.50293    0.68763    0.26500    1.000
    N3914    N        0.50149    0.67586    0.34550    1.000
    Si3915   Si       0.53831    0.69577    0.35157    1.000
    N3916    N        0.57303    0.67669    0.36989    1.000
    N3917    N        0.61903    0.70485    0.30878    1.000
    N3918    N        0.69093    0.67785    0.25920    1.000
    Si3919   Si       0.70511    0.66818    0.29809    1.000
    N3920    N        0.67038    0.67666    0.32434    1.000
    Si3921   Si       0.68182    0.66306    0.36591    1.000
    Si3922   Si       0.63162    0.66411    0.30630    1.000
    N3923    N        0.72454    0.67003    0.36977    1.000
    N3924    N        0.53943    0.66279    0.42761    1.000
    N3925    N        0.49721    0.70397    0.45709    1.000
    N3926    N        0.61000    0.67379    0.43912    1.000
    Si3927   Si       0.49192    0.67610    0.48878    1.000
    Si3928   Si       0.60687    0.71123    0.46011    1.000
    Si3929   Si       0.57828    0.66198    0.41068    1.000
    Si3930   Si       0.53068    0.70630    0.43208    1.000
    N3931    N        0.66451    0.68161    0.40127    1.000
    N3932    N        0.66997    0.67100    0.46861    1.000
    Si3933   Si       0.64945    0.65626    0.43341    1.000
    N3934    N        0.57161    0.69327    0.56209    1.000
    N3935    N        0.51698    0.68496    0.52292    1.000
    Si3936   Si       0.56237    0.66639    0.59792    1.000
    Si3937   Si       0.55019    0.66414    0.53791    1.000
    Si3938   Si       0.61091    0.69747    0.54057    1.000
    N3939    N        0.63614    0.66325    0.53545    1.000
    Si3940   Si       0.72537    0.69922    0.52585    1.000
    N3941    N        0.70754    0.71084    0.56381    1.000
    Si3942   Si       0.67243    0.71212    0.59049    1.000
    N3943    N        0.70605    0.65704    0.52039    1.000
    N3944    N        0.53554    0.68043    0.62815    1.000
    N3945    N        0.49654    0.67118    0.69178    1.000
    Si3946   Si       0.59255    0.67150    0.66210    1.000
    Si3947   Si       0.50205    0.65783    0.73461    1.000
    N3948    N        0.58168    0.71242    0.66291    1.000
    Si3949   Si       0.64648    0.70262    0.74234    1.000
    Si3950   Si       0.71017    0.70945    0.66143    1.000
    N3951    N        0.67782    0.70332    0.63125    1.000
    N3952    N        0.63194    0.66339    0.67892    1.000
    N3953    N        0.66152    0.66278    0.73882    1.000
    N3954    N        0.70074    0.66809    0.67491    1.000
    Si3955   Si       0.66452    0.66568    0.64926    1.000
    N3956    N        0.51833    0.67611    0.84777    1.000
    N3957    N        0.52012    0.68176    0.76934    1.000
    Si3958   Si       0.59486    0.67829    0.85129    1.000
    Si3959   Si       0.53631    0.66862    0.80690    1.000
    N3960    N        0.57156    0.69494    0.81731    1.000
    N3961    N        0.63560    0.69303    0.85178    1.000
    N3962    N        0.72398    0.68097    0.76640    1.000
    Si3963   Si       0.65529    0.69296    0.81035    1.000
    N3964    N        0.62819    0.71078    0.78043    1.000
    N3965    N        0.69206    0.71477    0.81484    1.000
    N3966    N        0.57385    0.70629    0.87950    1.000
    Si3967   Si       0.55373    0.67834    0.90705    1.000
    N3968    N        0.52079    0.69736    0.92824    1.000
    Si3969   Si       0.50414    0.68926    0.96697    1.000
    Si3970   Si       0.59517    0.67986    0.97661    1.000
    N3971    N        0.58441    0.68838    0.93669    1.000
    N3972    N        0.63891    0.68808    0.97585    1.000
    Si3973   Si       0.70907    0.66621    0.91261    1.000
    N3974    N        0.69439    0.71202    0.96909    1.000
    N3975    N        0.69809    0.70665    0.89949    1.000
    Si3976   Si       0.65871    0.69253    0.88756    1.000
    N3977    N        0.56267    0.73352    0.06461    1.000
    Si3978   Si       0.52226    0.73678    0.08180    1.000
    N3979    N        0.58733    0.71457    0.00240    1.000
    Si3980   Si       0.58914    0.71704    0.09477    1.000
    N3981    N        0.60473    0.75403    0.11410    1.000
    N3982    N        0.52570    0.71568    0.99500    1.000
    Si3983   Si       0.62527    0.73761    0.00917    1.000
    N3984    N        0.66587    0.72582    0.02576    1.000
    Si3985   Si       0.69529    0.75923    0.03097    1.000
    N3986    N        0.70789    0.76067    0.07239    1.000
    Si3987   Si       0.70227    0.72530    0.10046    1.000
    N3988    N        0.73118    0.75086    0.00762    1.000
    N3989    N        0.66189    0.71374    0.11609    1.000
    N3990    N        0.59941    0.76943    0.22024    1.000
    N3991    N        0.51548    0.73507    0.12631    1.000
    Si3992   Si       0.57814    0.72950    0.21514    1.000
    N3993    N        0.55012    0.74332    0.18489    1.000
    N3994    N        0.72087    0.74071    0.13517    1.000
    Si3995   Si       0.64188    0.75438    0.21527    1.000
    N3996    N        0.63644    0.72127    0.24546    1.000
    Si3997   Si       0.64316    0.74658    0.13574    1.000
    N3998    N        0.65189    0.73414    0.17803    1.000
    Si3999   Si       0.56464    0.76222    0.32029    1.000
    Si4000   Si       0.60739    0.72983    0.27618    1.000
    N4001    N        0.60169    0.76725    0.29824    1.000
    N4002    N        0.54254    0.72398    0.31915    1.000
    N4003    N        0.56700    0.72209    0.25714    1.000
    N4004    N        0.49400    0.74536    0.28091    1.000
    N4005    N        0.56824    0.76391    0.36316    1.000
    N4006    N        0.49638    0.76731    0.35636    1.000
    Si4007   Si       0.52933    0.71790    0.27895    1.000
    N4008    N        0.71933    0.73617    0.26162    1.000
    N4009    N        0.66785    0.75716    0.30694    1.000
    Si4010   Si       0.69052    0.76540    0.26818    1.000
    N4011    N        0.69281    0.72998    0.35826    1.000
    Si4012   Si       0.65434    0.72272    0.33171    1.000
    N4013    N        0.63135    0.73285    0.37021    1.000
    Si4014   Si       0.73392    0.71330    0.35431    1.000
    N4015    N        0.56841    0.72374    0.44823    1.000
    Si4016   Si       0.52991    0.75741    0.38187    1.000
    N4017    N        0.51912    0.71528    0.38829    1.000
    Si4018   Si       0.56896    0.76749    0.44554    1.000
    Si4019   Si       0.60908    0.76870    0.37822    1.000
    Si4020   Si       0.68121    0.71373    0.46241    1.000
    N4021    N        0.70728    0.72237    0.42829    1.000
    N4022    N        0.66892    0.77039    0.40550    1.000
    Si4023   Si       0.66964    0.72708    0.39688    1.000
    N4024    N        0.64388    0.73241    0.45332    1.000
    Si4025   Si       0.55790    0.73479    0.56927    1.000
    N4026    N        0.56063    0.74953    0.61142    1.000
    N4027    N        0.52927    0.75259    0.54134    1.000
    Si4028   Si       0.60311    0.75999    0.51382    1.000
    N4029    N        0.60627    0.71889    0.50478    1.000
    Si4030   Si       0.49722    0.72374    0.52960    1.000
    N4031    N        0.58850    0.76442    0.55608    1.000
    N4032    N        0.67749    0.75643    0.59356    1.000
    Si4033   Si       0.71512    0.75243    0.57360    1.000
    N4034    N        0.63510    0.71911    0.57093    1.000
    Si4035   Si       0.63679    0.76536    0.57070    1.000
    Si4036   Si       0.73675    0.75760    0.50263    1.000
    N4037    N        0.70680    0.72691    0.49425    1.000
    Si4038   Si       0.60284    0.74372    0.68056    1.000
    Si4039   Si       0.54605    0.72181    0.64250    1.000
    N4040    N        0.51404    0.73903    0.66945    1.000
    N4041    N        0.48919    0.73198    0.73165    1.000
    N4042    N        0.57394    0.77493    0.68921    1.000
    N4043    N        0.68334    0.72812    0.74500    1.000
    N4044    N        0.62851    0.76257    0.65157    1.000
    N4045    N        0.68862    0.74736    0.67455    1.000
    Si4046   Si       0.66747    0.75384    0.71102    1.000
    Si4047   Si       0.67056    0.76564    0.63909    1.000
    N4048    N        0.62979    0.73015    0.71233    1.000
    N4049    N        0.53150    0.75189    0.83867    1.000
    N4050    N        0.55631    0.74153    0.76625    1.000
    Si4051   Si       0.59011    0.72677    0.79084    1.000
    N4052    N        0.59360    0.76322    0.81804    1.000
    Si4053   Si       0.57449    0.74444    0.85227    1.000
    Si4054   Si       0.50646    0.71803    0.84647    1.000
    Si4055   Si       0.50926    0.72441    0.77281    1.000
    N4056    N        0.49762    0.76725    0.78500    1.000
    Si4057   Si       0.69179    0.75339    0.83405    1.000
    Si4058   Si       0.71182    0.72368    0.77688    1.000
    N4059    N        0.72255    0.76402    0.86365    1.000
    N4060    N        0.71176    0.76801    0.79802    1.000
    N4061    N        0.65365    0.76336    0.84735    1.000
    Si4062   Si       0.55872    0.74004    0.98163    1.000
    N4063    N        0.56489    0.74942    0.94139    1.000
    N4064    N        0.59383    0.76408    0.88674    1.000
    Si4065   Si       0.50975    0.74029    0.91425    1.000
    Si4066   Si       0.59277    0.72585    0.91502    1.000
    Si4067   Si       0.72897    0.73542    0.89534    1.000
    N4068    N        0.72974    0.75764    0.93423    1.000
    Si4069   Si       0.73392    0.73059    0.97077    1.000
    N4070    N        0.63625    0.75383    0.97063    1.000
    Si4071   Si       0.65552    0.71991    0.94994    1.000
    N4072    N        0.63560    0.72065    0.91109    1.000
    N4073    N        0.56406    0.80336    0.07362    1.000
    Si4074   Si       0.52268    0.81277    0.05940    1.000
    Si4075   Si       0.58357    0.79324    0.11376    1.000
    N4076    N        0.55743    0.77866    0.00448    1.000
    N4077    N        0.50209    0.77499    0.06635    1.000
    Si4078   Si       0.57705    0.77190    0.04402    1.000
    N4079    N        0.61724    0.77415    0.03283    1.000
    Si4080   Si       0.73235    0.79626    0.07342    1.000
    Si4081   Si       0.64362    0.81117    0.02344    1.000
    N4082    N        0.68389    0.80056    0.01997    1.000
    N4083    N        0.73177    0.80885    0.11524    1.000
    N4084    N        0.49386    0.78031    0.18159    1.000
    N4085    N        0.55446    0.81768    0.19891    1.000
    Si4086   Si       0.53641    0.78534    0.17814    1.000
    N4087    N        0.54733    0.79731    0.13705    1.000
    Si4088   Si       0.58784    0.81180    0.22652    1.000
    N4089    N        0.61136    0.82220    0.12803    1.000
    N4090    N        0.71934    0.79660    0.17904    1.000
    Si4091   Si       0.70843    0.78203    0.14059    1.000
    Si4092   Si       0.65323    0.82423    0.13285    1.000
    N4093    N        0.66789    0.78150    0.23559    1.000
    N4094    N        0.66687    0.78303    0.13127    1.000
    N4095    N        0.53585    0.79220    0.30726    1.000
    N4096    N        0.57474    0.82892    0.26281    1.000
    Si4097   Si       0.49688    0.77637    0.31169    1.000
    N4098    N        0.62523    0.80137    0.35296    1.000
    Si4099   Si       0.63688    0.78689    0.31431    1.000
    N4100    N        0.71087    0.79817    0.28900    1.000
    N4101    N        0.70020    0.80230    0.35286    1.000
    N4102    N        0.63783    0.81931    0.28492    1.000
    Si4103   Si       0.73188    0.82462    0.26312    1.000
    Si4104   Si       0.65806    0.82042    0.24684    1.000
    Si4105   Si       0.70650    0.77121    0.32583    1.000
    N4106    N        0.48615    0.81574    0.39707    1.000
    N4107    N        0.60406    0.77787    0.41963    1.000
    N4108    N        0.58672    0.78474    0.48147    1.000
    Si4109   Si       0.49333    0.78878    0.42874    1.000
    Si4110   Si       0.57883    0.82851    0.48739    1.000
    N4111    N        0.53180    0.77247    0.42197    1.000
    N4112    N        0.66522    0.80116    0.46565    1.000
    Si4113   Si       0.64247    0.77500    0.44056    1.000
    Si4114   Si       0.68897    0.80615    0.39265    1.000
    N4115    N        0.72252    0.80806    0.41909    1.000
    Si4116   Si       0.70655    0.81519    0.45841    1.000
    N4117    N        0.73749    0.79645    0.48287    1.000
    Si4118   Si       0.52881    0.79665    0.54195    1.000
    N4119    N        0.54379    0.81105    0.57920    1.000
    Si4120   Si       0.57782    0.79089    0.59966    1.000
    N4121    N        0.54114    0.82415    0.51129    1.000
    N4122    N        0.62207    0.79623    0.59738    1.000
    Si4123   Si       0.72145    0.82075    0.54008    1.000
    Si4124   Si       0.65121    0.81621    0.50354    1.000
    N4125    N        0.64280    0.77932    0.52857    1.000
    N4126    N        0.72416    0.77745    0.54069    1.000
    N4127    N        0.71801    0.82940    0.58271    1.000
    Si4128   Si       0.52929    0.77602    0.68776    1.000
    N4129    N        0.52299    0.79436    0.72826    1.000
    N4130    N        0.51404    0.80785    0.66151    1.000
    Si4131   Si       0.58566    0.81336    0.70420    1.000
    N4132    N        0.58018    0.81739    0.63787    1.000
    N4133    N        0.58658    0.80657    0.74761    1.000
    N4134    N        0.73857    0.81069    0.64957    1.000
    N4135    N        0.62326    0.82477    0.68724    1.000
    N4136    N        0.66781    0.79048    0.72924    1.000
    N4137    N        0.67023    0.80960    0.64596    1.000
    Si4138   Si       0.62490    0.80743    0.64371    1.000
    N4139    N        0.54016    0.81032    0.79681    1.000
    Si4140   Si       0.55155    0.78351    0.76301    1.000
    Si4141   Si       0.51173    0.78581    0.82042    1.000
    N4142    N        0.48959    0.81344    0.84646    1.000
    Si4143   Si       0.62460    0.79514    0.82530    1.000
    N4144    N        0.64932    0.79612    0.79036    1.000
    Si4145   Si       0.68580    0.78952    0.77037    1.000
    Si4146   Si       0.62064    0.82280    0.76994    1.000
    N4147    N        0.63050    0.81804    0.86578    1.000
    N4148    N        0.71136    0.82647    0.76835    1.000
    N4149    N        0.52501    0.82203    0.95779    1.000
    Si4150   Si       0.56593    0.78473    0.91563    1.000
    Si4151   Si       0.50607    0.81627    0.88554    1.000
    N4152    N        0.59712    0.80735    0.93536    1.000
    N4153    N        0.52530    0.77816    0.89784    1.000
    Si4154   Si       0.54632    0.82110    0.99552    1.000
    Si4155   Si       0.70872    0.79573    0.92524    1.000
    Si4156   Si       0.70900    0.82667    0.99527    1.000
    N4157    N        0.73490    0.81921    0.90067    1.000
    N4158    N        0.69711    0.82753    0.95220    1.000
    N4159    N        0.63630    0.82072    0.98158    1.000
    N4160    N        0.66555    0.78614    0.91601    1.000
    Si4161   Si       0.63646    0.79172    0.94949    1.000
    Si4162   Si       0.63635    0.77728    0.88408    1.000
    N4163    N        0.50644    0.84016    0.08987    1.000
    Si4164   Si       0.60808    0.87402    0.02019    1.000
    N4165    N        0.57683    0.84659    0.00916    1.000
    N4166    N        0.51347    0.83091    0.02188    1.000
    N4167    N        0.63646    0.85023    0.04519    1.000
    N4168    N        0.67407    0.84253    0.09915    1.000
    Si4169   Si       0.65113    0.87133    0.07809    1.000
    Si4170   Si       0.71675    0.84872    0.10432    1.000
    N4171    N        0.71298    0.87010    0.00316    1.000
    N4172    N        0.73015    0.84078    0.06332    1.000
    N4173    N        0.62234    0.88728    0.10627    1.000
    N4174    N        0.49220    0.83563    0.21965    1.000
    N4175    N        0.55777    0.86860    0.12173    1.000
    N4176    N        0.50364    0.84580    0.15614    1.000
    Si4177   Si       0.52467    0.84811    0.19422    1.000
    Si4178   Si       0.59822    0.86402    0.13297    1.000
    N4179    N        0.60395    0.87944    0.17207    1.000
    Si4180   Si       0.53006    0.83534    0.12376    1.000
    N4181    N        0.53692    0.88935    0.20213    1.000
    N4182    N        0.71858    0.88758    0.12031    1.000
    Si4183   Si       0.70342    0.83272    0.19418    1.000
    N4184    N        0.66670    0.84186    0.16853    1.000
    N4185    N        0.62576    0.83241    0.22111    1.000
    Si4186   Si       0.63977    0.86447    0.19450    1.000
    N4187    N        0.73027    0.86582    0.18606    1.000
    Si4188   Si       0.69563    0.88477    0.24541    1.000
    N4189    N        0.70022    0.84245    0.23817    1.000
    Si4190   Si       0.55493    0.87100    0.35676    1.000
    N4191    N        0.57425    0.85961    0.31688    1.000
    N4192    N        0.51839    0.84856    0.34462    1.000
    N4193    N        0.50632    0.85139    0.28459    1.000
    Si4194   Si       0.60656    0.84987    0.28723    1.000
    Si4195   Si       0.54273    0.83448    0.29939    1.000
    N4196    N        0.64751    0.86875    0.33883    1.000
    Si4197   Si       0.63099    0.84209    0.36799    1.000
    N4198    N        0.59282    0.85456    0.38266    1.000
    N4199    N        0.56744    0.86099    0.45781    1.000
    Si4200   Si       0.49756    0.85446    0.38393    1.000
    N4201    N        0.53240    0.87657    0.39636    1.000
    Si4202   Si       0.57363    0.87196    0.41583    1.000
    Si4203   Si       0.62393    0.88717    0.48033    1.000
    Si4204   Si       0.67326    0.87509    0.42283    1.000
    N4205    N        0.66244    0.84063    0.39832    1.000
    N4206    N        0.70468    0.85905    0.45168    1.000
    N4207    N        0.61883    0.84369    0.49647    1.000
    Si4208   Si       0.50590    0.85142    0.51944    1.000
    N4209    N        0.50198    0.86403    0.56169    1.000
    Si4210   Si       0.51299    0.83744    0.59297    1.000
    Si4211   Si       0.71408    0.87053    0.59781    1.000
    Si4212   Si       0.68415    0.87772    0.52477    1.000
    N4213    N        0.68561    0.83557    0.52022    1.000
    N4214    N        0.68418    0.88585    0.56889    1.000
    N4215    N        0.52592    0.86207    0.62729    1.000
    Si4216   Si       0.52587    0.83865    0.72845    1.000
    N4217    N        0.55596    0.84704    0.69632    1.000
    Si4218   Si       0.54685    0.83609    0.65394    1.000
    N4219    N        0.48602    0.85044    0.71749    1.000
    Si4220   Si       0.56580    0.88962    0.69379    1.000
    Si4221   Si       0.65759    0.82893    0.71351    1.000
    Si4222   Si       0.72836    0.84048    0.73122    1.000
    N4223    N        0.64075    0.85309    0.74749    1.000
    Si4224   Si       0.70316    0.83411    0.65934    1.000
    N4225    N        0.70411    0.87176    0.63962    1.000
    N4226    N        0.69611    0.84403    0.70161    1.000
    Si4227   Si       0.54016    0.85233    0.80326    1.000
    N4228    N        0.50172    0.86814    0.81262    1.000
    N4229    N        0.54439    0.86371    0.75974    1.000
    N4230    N        0.56142    0.87623    0.83107    1.000
    Si4231   Si       0.60425    0.87738    0.82066    1.000
    N4232    N        0.60711    0.83475    0.80850    1.000
    Si4233   Si       0.54538    0.88753    0.87061    1.000
    Si4234   Si       0.73508    0.85273    0.79430    1.000
    Si4235   Si       0.72092    0.86660    0.85425    1.000
    N4236    N        0.71657    0.88594    0.81585    1.000
    N4237    N        0.63243    0.88895    0.85153    1.000
    N4238    N        0.73681    0.83147    0.83399    1.000
    Si4239   Si       0.53529    0.85765    0.93474    1.000
    N4240    N        0.57573    0.87096    0.94080    1.000
    N4241    N        0.53266    0.84887    0.89076    1.000
    Si4242   Si       0.61135    0.84875    0.95568    1.000
    Si4243   Si       0.64533    0.85574    0.87690    1.000
    N4244    N        0.64051    0.85660    0.92055    1.000
    N4245    N        0.62625    0.88298    0.98169    1.000
    N4246    N        0.68777    0.86048    0.87922    1.000
    Si4247   Si       0.68220    0.85814    0.92468    1.000
    N4248    N        0.54144    0.91904    0.07537    1.000
    Si4249   Si       0.56685    0.93155    0.04205    1.000
    Si4250   Si       0.49830    0.92737    0.07842    1.000
    N4251    N        0.54828    0.91774    0.00821    1.000
    N4252    N        0.60644    0.91283    0.03922    1.000
    Si4253   Si       0.54092    0.90715    0.11847    1.000
    Si4254   Si       0.71038    0.91721    0.09072    1.000
    N4255    N        0.67046    0.91077    0.07178    1.000
    Si4256   Si       0.64680    0.93010    0.03820    1.000
    Si4257   Si       0.63523    0.93084    0.10134    1.000
    N4258    N        0.74224    0.90832    0.06045    1.000
    N4259    N        0.49783    0.92329    0.12237    1.000
    N4260    N        0.60204    0.93003    0.21537    1.000
    Si4261   Si       0.50269    0.91422    0.22010    1.000
    N4262    N        0.55784    0.92671    0.15338    1.000
    Si4263   Si       0.57522    0.90735    0.18965    1.000
    Si4264   Si       0.63207    0.91794    0.24538    1.000
    N4265    N        0.73015    0.91263    0.23681    1.000
    N4266    N        0.65665    0.94786    0.13442    1.000
    N4267    N        0.71462    0.94001    0.17420    1.000
    N4268    N        0.65893    0.89233    0.22308    1.000
    Si4269   Si       0.72999    0.90081    0.16001    1.000
    N4270    N        0.55475    0.91956    0.27933    1.000
    Si4271   Si       0.58517    0.90485    0.30816    1.000
    N4272    N        0.55212    0.91453    0.34193    1.000
    Si4273   Si       0.52530    0.92818    0.30983    1.000
    N4274    N        0.61596    0.93193    0.32620    1.000
    N4275    N        0.67674    0.93677    0.33383    1.000
    Si4276   Si       0.64896    0.90226    0.31001    1.000
    Si4277   Si       0.70575    0.92240    0.36165    1.000
    N4278    N        0.68487    0.89970    0.28516    1.000
    Si4279   Si       0.68714    0.94485    0.29070    1.000
    N4280    N        0.61797    0.89175    0.27998    1.000
    N4281    N        0.51370    0.94385    0.39258    1.000
    N4282    N        0.59236    0.91590    0.48606    1.000
    N4283    N        0.52312    0.92241    0.45763    1.000
    Si4284   Si       0.55419    0.89754    0.47831    1.000
    Si4285   Si       0.55659    0.93850    0.37777    1.000
    N4286    N        0.58027    0.91493    0.40591    1.000
    Si4287   Si       0.50868    0.90830    0.41931    1.000
    N4288    N        0.63569    0.89087    0.43710    1.000
    Si4289   Si       0.71824    0.93884    0.42241    1.000
    Si4290   Si       0.61832    0.92680    0.41939    1.000
    N4291    N        0.69668    0.90613    0.40200    1.000
    N4292    N        0.55724    0.90996    0.58293    1.000
    Si4293   Si       0.52105    0.90304    0.55669    1.000
    Si4294   Si       0.58715    0.94123    0.58207    1.000
    N4295    N        0.49322    0.93386    0.56829    1.000
    N4296    N        0.53667    0.89171    0.51774    1.000
    Si4297   Si       0.49542    0.94777    0.60782    1.000
    Si4298   Si       0.64826    0.93912    0.52821    1.000
    N4299    N        0.62411    0.92995    0.56258    1.000
    Si4300   Si       0.65835    0.91870    0.58721    1.000
    Si4301   Si       0.72080    0.91962    0.55449    1.000
    N4302    N        0.65581    0.90321    0.50410    1.000
    N4303    N        0.72362    0.89520    0.51902    1.000
    N4304    N        0.68439    0.94419    0.55391    1.000
    N4305    N        0.64285    0.89340    0.62022    1.000
    N4306    N        0.68513    0.93887    0.61977    1.000
    Si4307   Si       0.54676    0.89941    0.62307    1.000
    Si4308   Si       0.51269    0.93962    0.68004    1.000
    N4309    N        0.53048    0.91179    0.71147    1.000
    N4310    N        0.52358    0.93331    0.63839    1.000
    N4311    N        0.59239    0.90060    0.72632    1.000
    Si4312   Si       0.48715    0.89489    0.71770    1.000
    N4313    N        0.57851    0.89542    0.65408    1.000
    Si4314   Si       0.61510    0.91536    0.64513    1.000
    N4315    N        0.60077    0.95060    0.62185    1.000
    N4316    N        0.70187    0.93119    0.68362    1.000
    Si4317   Si       0.66730    0.94182    0.70566    1.000
    Si4318   Si       0.67862    0.90672    0.65058    1.000
    N4319    N        0.64366    0.91977    0.67582    1.000
    N4320    N        0.65777    0.92523    0.74459    1.000
    N4321    N        0.55213    0.93830    0.77840    1.000
    Si4322   Si       0.59207    0.94087    0.79642    1.000
    Si4323   Si       0.55552    0.90515    0.74946    1.000
    N4324    N        0.50698    0.90744    0.86921    1.000
    N4325    N        0.60282    0.94820    0.83722    1.000
    N4326    N        0.60715    0.90249    0.78698    1.000
    Si4327   Si       0.71455    0.92974    0.80747    1.000
    Si4328   Si       0.64371    0.93199    0.84377    1.000
    N4329    N        0.67085    0.93946    0.81160    1.000
    N4330    N        0.73188    0.94511    0.84514    1.000
    Si4331   Si       0.62803    0.89445    0.74854    1.000
    N4332    N        0.73738    0.93734    0.77092    1.000
    N4333    N        0.55945    0.94188    0.94718    1.000
    N4334    N        0.57328    0.91464    0.88842    1.000
    Si4335   Si       0.58625    0.91212    0.92923    1.000
    Si4336   Si       0.52951    0.92036    0.97110    1.000
    N4337    N        0.50963    0.89262    0.94023    1.000
    N4338    N        0.49019    0.93500    0.98600    1.000
    N4339    N        0.62888    0.92474    0.93032    1.000
    Si4340   Si       0.65323    0.91217    0.96423    1.000
    N4341    N        0.68897    0.89653    0.94604    1.000
    Si4342   Si       0.72633    0.89472    0.96770    1.000
    N4343    N        0.65561    0.94317    0.99749    1.000
    Si4344   Si       0.52643    0.99135    0.06964    1.000
    N4345    N        0.56502    0.97680    0.04592    1.000
    N4346    N        0.54026    0.98448    0.11213    1.000
    Si4347   Si       0.60375    0.98394    0.07594    1.000
    N4348    N        0.49244    0.96547    0.05950    1.000
    Si4349   Si       0.58638    0.00336    0.01611    1.000
    N4350    N        0.59719    0.95088    0.10254    1.000
    N4351    N        0.71605    0.95555    0.10769    1.000
    N4352    N        0.64054    0.96703    0.05953    1.000
    Si4353   Si       0.72860    0.98904    0.08680    1.000
    Si4354   Si       0.57122    0.96304    0.13514    1.000
    Si4355   Si       0.60503    0.97279    0.20603    1.000
    N4356    N        0.59007    0.98400    0.16809    1.000
    Si4357   Si       0.50543    0.98796    0.21442    1.000
    N4358    N        0.50299    0.98173    0.17097    1.000
    N4359    N        0.52251    0.95084    0.23046    1.000
    Si4360   Si       0.52134    0.00899    0.14213    1.000
    Si4361   Si       0.69552    0.96547    0.14606    1.000
    Si4362   Si       0.72925    0.94978    0.21542    1.000
    N4363    N        0.64440    0.99026    0.20903    1.000
    N4364    N        0.70446    0.98483    0.23104    1.000
    N4365    N        0.52744    0.97047    0.29803    1.000
    Si4366   Si       0.55308    0.95737    0.25906    1.000
    N4367    N        0.58264    0.98383    0.24347    1.000
    Si4368   Si       0.72826    0.99432    0.30206    1.000
    N4369    N        0.68568    0.99308    0.29476    1.000
    N4370    N        0.63598    0.99979    0.33748    1.000
    Si4371   Si       0.64185    0.95806    0.34749    1.000
    Si4372   Si       0.66324    0.99188    0.24979    1.000
    N4373    N        0.73044    0.95049    0.29431    1.000
    N4374    N        0.65128    0.95062    0.26404    1.000
    N4375    N        0.57472    0.97710    0.38094    1.000
    Si4376   Si       0.59660    0.95919    0.48471    1.000
    N4377    N        0.50201    0.99291    0.47025    1.000
    N4378    N        0.60762    0.96256    0.44268    1.000
    Si4379   Si       0.61046    0.98367    0.40452    1.000
    Si4380   Si       0.49239    0.95121    0.47015    1.000
    N4381    N        0.56260    0.98376    0.49958    1.000
    N4382    N        0.63802    0.94986    0.38955    1.000
    N4383    N        0.70259    0.96600    0.45143    1.000
    N4384    N        0.72473    0.95701    0.38249    1.000
    Si4385   Si       0.73742    0.99747    0.38168    1.000
    Si4386   Si       0.69917    0.00781    0.45195    1.000
    N4387    N        0.57162    0.97908    0.56863    1.000
    N4388    N        0.50028    0.99126    0.60987    1.000
    Si4389   Si       0.53843    0.99982    0.59101    1.000
    N4390    N        0.68845    0.00131    0.52098    1.000
    Si4391   Si       0.70784    0.98063    0.55372    1.000
    N4392    N        0.63240    0.97329    0.50660    1.000
    N4393    N        0.71360    0.99896    0.59172    1.000
    N4394    N        0.58669    0.98808    0.67881    1.000
    Si4395   Si       0.59905    0.99172    0.63726    1.000
    N4396    N        0.51317    0.98294    0.68462    1.000
    Si4397   Si       0.61257    0.00246    0.70993    1.000
    Si4398   Si       0.71084    0.97465    0.62758    1.000
    N4399    N        0.70209    0.00195    0.65949    1.000
    N4400    N        0.65187    0.98218    0.70409    1.000
    Si4401   Si       0.51543    0.96115    0.78424    1.000
    N4402    N        0.52269    0.00020    0.79992    1.000
    N4403    N        0.54307    0.98089    0.86920    1.000
    Si4404   Si       0.54755    0.00590    0.83563    1.000
    N4405    N        0.61883    0.97388    0.77958    1.000
    N4406    N        0.69060    0.98593    0.77474    1.000
    Si4407   Si       0.70328    0.97310    0.86164    1.000
    Si4408   Si       0.65848    0.95683    0.77442    1.000
    Si4409   Si       0.73005    0.97748    0.75548    1.000
    Si4410   Si       0.57801    0.95427    0.87431    1.000
    Si4411   Si       0.51600    0.99241    0.90478    1.000
    N4412    N        0.60111    0.98943    0.97813    1.000
    Si4413   Si       0.57683    0.98027    0.94305    1.000
    N4414    N        0.60037    0.97689    0.90526    1.000
    N4415    N        0.49755    0.95886    0.92209    1.000
    Si4416   Si       0.64453    0.98094    0.97861    1.000
    N4417    N        0.71956    0.99215    0.89818    1.000
    N4418    N        0.66450    0.95692    0.87423    1.000
    N4419    N        0.66275    0.98386    0.93952    1.000
    Si4420   Si       0.63911    0.95979    0.90940    1.000
    Si4421   Si       0.84128    0.04195    0.01497    1.000
    N4422    N        0.75681    0.04865    0.05236    1.000
    Si4423   Si       0.83784    0.03599    0.11418    1.000
    N4424    N        0.75206    0.01770    0.11494    1.000
    N4425    N        0.80362    0.06043    0.10326    1.000
    Si4426   Si       0.76031    0.06358    0.09699    1.000
    Si4427   Si       0.78095    0.00969    0.03903    1.000
    N4428    N        0.82520    0.00540    0.03351    1.000
    N4429    N        0.86059    0.05786    0.08488    1.000
    Si4430   Si       0.89483    0.04710    0.06104    1.000
    Si4431   Si       0.96763    0.04489    0.06614    1.000
    N4432    N        0.93038    0.06502    0.08010    1.000
    N4433    N        0.88008    0.06144    0.02274    1.000
    N4434    N        0.89148    0.00479    0.05762    1.000
    N4435    N        0.85358    0.05211    0.21881    1.000
    Si4436   Si       0.76746    0.05760    0.18613    1.000
    Si4437   Si       0.83966    0.02348    0.18844    1.000
    N4438    N        0.79735    0.02555    0.17675    1.000
    N4439    N        0.85971    0.02957    0.15129    1.000
    Si4440   Si       0.74069    0.00985    0.23630    1.000
    N4441    N        0.73738    0.04811    0.21387    1.000
    N4442    N        0.97362    0.05487    0.22852    1.000
    Si4443   Si       0.97218    0.01897    0.13747    1.000
    Si4444   Si       0.90224    0.03799    0.15491    1.000
    N4445    N        0.95851    0.05822    0.15068    1.000
    N4446    N        0.91257    0.03804    0.19711    1.000
    Si4447   Si       0.98792    0.01102    0.22126    1.000
    Si4448   Si       0.89267    0.06775    0.22514    1.000
    N4449    N        0.80779    0.02702    0.33243    1.000
    Si4450   Si       0.78206    0.04383    0.30088    1.000
    N4451    N        0.75180    0.01963    0.27690    1.000
    Si4452   Si       0.83381    0.06176    0.34740    1.000
    N4453    N        0.80768    0.06152    0.27360    1.000
    N4454    N        0.87536    0.05251    0.33405    1.000
    N4455    N        0.96421    0.02618    0.35496    1.000
    N4456    N        0.92596    0.03151    0.28004    1.000
    Si4457   Si       0.96612    0.04219    0.27212    1.000
    Si4458   Si       0.90278    0.06367    0.30073    1.000
    Si4459   Si       0.96823    0.06573    0.33725    1.000
    N4460    N        0.79138    0.04069    0.44626    1.000
    Si4461   Si       0.75528    0.05920    0.46265    1.000
    N4462    N        0.84592    0.06044    0.39147    1.000
    Si4463   Si       0.86117    0.02556    0.46864    1.000
    Si4464   Si       0.82533    0.06678    0.42970    1.000
    N4465    N        0.84654    0.00588    0.43367    1.000
    Si4466   Si       0.88694    0.05396    0.37774    1.000
    N4467    N        0.90529    0.02408    0.46705    1.000
    N4468    N        0.89764    0.01148    0.37997    1.000
    Si4469   Si       0.93256    0.04863    0.44131    1.000
    N4470    N        0.95025    0.01065    0.42584    1.000
    Si4471   Si       0.98416    0.04067    0.49495    1.000
    N4472    N        0.80012    0.03463    0.55053    1.000
    Si4473   Si       0.82632    0.03782    0.59161    1.000
    N4474    N        0.85853    0.02074    0.51155    1.000
    Si4475   Si       0.76811    0.06294    0.53935    1.000
    N4476    N        0.79525    0.04845    0.61958    1.000
    N4477    N        0.95149    0.02279    0.51896    1.000
    Si4478   Si       0.96430    0.04303    0.59903    1.000
    Si4479   Si       0.90536    0.02534    0.51125    1.000
    Si4480   Si       0.82962    0.02652    0.71700    1.000
    Si4481   Si       0.80396    0.03798    0.66169    1.000
    N4482    N        0.76365    0.04327    0.68223    1.000
    N4483    N        0.80040    0.05319    0.74034    1.000
    N4484    N        0.83156    0.06120    0.68558    1.000
    N4485    N        0.97352    0.02364    0.63971    1.000
    N4486    N        0.86786    0.03293    0.73982    1.000
    N4487    N        0.91366    0.06578    0.65053    1.000
    Si4488   Si       0.94837    0.04608    0.66989    1.000
    Si4489   Si       0.95655    0.01844    0.74118    1.000
    N4490    N        0.94132    0.01693    0.70008    1.000
    Si4491   Si       0.80920    0.04701    0.84524    1.000
    N4492    N        0.85173    0.03972    0.85146    1.000
    N4493    N        0.80842    0.04534    0.80269    1.000
    Si4494   Si       0.78942    0.02149    0.77126    1.000
    N4495    N        0.78100    0.02219    0.86799    1.000
    N4496    N        0.92028    0.03558    0.81292    1.000
    Si4497   Si       0.88537    0.05728    0.82643    1.000
    N4498    N        0.94913    0.05634    0.75636    1.000
    Si4499   Si       0.95052    0.06440    0.79913    1.000
    N4500    N        0.83734    0.03596    0.97222    1.000
    Si4501   Si       0.75060    0.02792    0.97027    1.000
    N4502    N        0.77562    0.01309    0.93545    1.000
    Si4503   Si       0.86309    0.02262    0.89033    1.000
    N4504    N        0.76397    0.06615    0.98240    1.000
    N4505    N        0.88015    0.05324    0.91593    1.000
    N4506    N        0.94812    0.04050    0.90386    1.000
    Si4507   Si       0.82803    0.08325    0.07274    1.000
    N4508    N        0.76281    0.10908    0.09578    1.000
    Si4509   Si       0.77241    0.07805    0.02308    1.000
    N4510    N        0.81308    0.07121    0.03208    1.000
    N4511    N        0.76300    0.12065    0.03010    1.000
    Si4512   Si       0.96604    0.11029    0.03291    1.000
    Si4513   Si       0.89039    0.10236    0.00883    1.000
    N4514    N        0.93392    0.10204    0.00585    1.000
    Si4515   Si       0.93896    0.08181    0.11968    1.000
    Si4516   Si       0.82465    0.07784    0.23936    1.000
    Si4517   Si       0.75287    0.11510    0.13808    1.000
    N4518    N        0.79563    0.08483    0.20552    1.000
    N4519    N        0.74581    0.07232    0.14936    1.000
    N4520    N        0.83799    0.12063    0.23464    1.000
    N4521    N        0.90224    0.08117    0.14291    1.000
    N4522    N        0.94597    0.12407    0.12771    1.000
    Si4523   Si       0.94880    0.06792    0.19191    1.000
    N4524    N        0.91590    0.09961    0.20414    1.000
    N4525    N        0.98128    0.10532    0.18821    1.000
    Si4526   Si       0.91000    0.12127    0.16310    1.000
    N4527    N        0.81813    0.10158    0.34235    1.000
    Si4528   Si       0.77532    0.11044    0.34128    1.000
    N4529    N        0.76109    0.07554    0.32216    1.000
    N4530    N        0.88666    0.08621    0.26636    1.000
    N4531    N        0.93446    0.08603    0.32216    1.000
    N4532    N        0.88660    0.11477    0.35790    1.000
    Si4533   Si       0.92239    0.12492    0.33324    1.000
    N4534    N        0.96293    0.12371    0.24726    1.000
    Si4535   Si       0.86995    0.12698    0.26339    1.000
    N4536    N        0.74218    0.07981    0.42767    1.000
    N4537    N        0.80832    0.10683    0.42910    1.000
    N4538    N        0.85022    0.06863    0.46585    1.000
    Si4539   Si       0.76747    0.11540    0.42013    1.000
    Si4540   Si       0.91405    0.11358    0.39192    1.000
    N4541    N        0.91599    0.07268    0.40764    1.000
    Si4542   Si       0.97746    0.10531    0.48406    1.000
    N4543    N        0.96453    0.06963    0.46341    1.000
    N4544    N        0.77679    0.09459    0.56858    1.000
    Si4545   Si       0.77000    0.08295    0.61059    1.000
    N4546    N        0.85033    0.11116    0.53783    1.000
    Si4547   Si       0.85573    0.11281    0.58108    1.000
    N4548    N        0.76918    0.08073    0.49859    1.000
    N4549    N        0.85864    0.06982    0.59275    1.000
    Si4550   Si       0.86660    0.08832    0.50303    1.000
    Si4551   Si       0.92991    0.08750    0.54394    1.000
    N4552    N        0.96894    0.09028    0.52452    1.000
    Si4553   Si       0.89808    0.07600    0.61267    1.000
    N4554    N        0.89165    0.11902    0.61018    1.000
    N4555    N        0.93145    0.06941    0.58330    1.000
    N4556    N        0.90241    0.06869    0.51759    1.000
    N4557    N        0.84489    0.10115    0.73937    1.000
    Si4558   Si       0.83455    0.10303    0.69597    1.000
    N4559    N        0.78898    0.10710    0.69653    1.000
    N4560    N        0.86475    0.11999    0.67045    1.000
    N4561    N        0.77529    0.12050    0.63174    1.000
    Si4562   Si       0.77253    0.07231    0.71528    1.000
    N4563    N        0.74019    0.08858    0.73970    1.000
    Si4564   Si       0.76135    0.12612    0.67033    1.000
    N4565    N        0.90819    0.09334    0.72003    1.000
    N4566    N        0.96962    0.07684    0.69274    1.000
    Si4567   Si       0.95154    0.09014    0.72942    1.000
    Si4568   Si       0.90038    0.09709    0.67703    1.000
    Si4569   Si       0.88021    0.07541    0.74791    1.000
    N4570    N        0.79646    0.08846    0.85393    1.000
    N4571    N        0.80098    0.11511    0.78094    1.000
    Si4572   Si       0.78356    0.11512    0.82221    1.000
    Si4573   Si       0.75833    0.11757    0.76644    1.000
    Si4574   Si       0.82518    0.07520    0.77228    1.000
    N4575    N        0.74423    0.10538    0.80586    1.000
    N4576    N        0.86850    0.07539    0.79059    1.000
    N4577    N        0.94046    0.10667    0.80432    1.000
    N4578    N        0.90755    0.08119    0.85741    1.000
    Si4579   Si       0.92922    0.11660    0.84526    1.000
    N4580    N        0.96781    0.11830    0.86556    1.000
    N4581    N        0.98261    0.11525    0.74978    1.000
    N4582    N        0.81312    0.08278    0.92794    1.000
    N4583    N        0.75286    0.09051    0.91022    1.000
    Si4584   Si       0.77212    0.09008    0.94880    1.000
    Si4585   Si       0.79495    0.10284    0.89392    1.000
    Si4586   Si       0.85109    0.06941    0.94654    1.000
    Si4587   Si       0.91512    0.07124    0.89838    1.000
    N4588    N        0.87324    0.10033    0.96808    1.000
    N4589    N        0.93205    0.10350    0.92337    1.000
    Si4590   Si       0.97151    0.11142    0.90897    1.000
    Si4591   Si       0.78246    0.13413    0.06736    1.000
    N4592    N        0.78478    0.17784    0.06810    1.000
    Si4593   Si       0.86225    0.15346    0.06406    1.000
    Si4594   Si       0.74570    0.14215    0.99721    1.000
    N4595    N        0.82643    0.12634    0.06955    1.000
    Si4596   Si       0.96721    0.16823    0.03014    1.000
    N4597    N        0.88989    0.15637    0.09782    1.000
    Si4598   Si       0.93259    0.15252    0.09746    1.000
    N4599    N        0.88288    0.14310    0.02573    1.000
    N4600    N        0.94863    0.14225    0.05995    1.000
    Si4601   Si       0.89488    0.17607    0.99801    1.000
    N4602    N        0.81605    0.17097    0.19638    1.000
    N4603    N        0.77275    0.14270    0.23146    1.000
    Si4604   Si       0.79757    0.17275    0.15764    1.000
    N4605    N        0.78658    0.13139    0.15921    1.000
    N4606    N        0.82601    0.18192    0.12558    1.000
    Si4607   Si       0.79179    0.18331    0.23258    1.000
    Si4608   Si       0.86061    0.16655    0.20525    1.000
    Si4609   Si       0.80545    0.12845    0.20423    1.000
    Si4610   Si       0.86902    0.17432    0.13090    1.000
    Si4611   Si       0.97333    0.13722    0.16020    1.000
    Si4612   Si       0.93013    0.13644    0.22229    1.000
    N4613    N        0.87497    0.14940    0.16488    1.000
    N4614    N        0.94063    0.15333    0.18282    1.000
    N4615    N        0.89386    0.15562    0.23900    1.000
    N4616    N        0.75144    0.14396    0.32050    1.000
    Si4617   Si       0.74805    0.16372    0.35933    1.000
    N4618    N        0.85313    0.14554    0.30043    1.000
    Si4619   Si       0.84968    0.12998    0.34301    1.000
    N4620    N        0.84479    0.16288    0.36887    1.000
    N4621    N        0.92652    0.15178    0.30176    1.000
    Si4622   Si       0.96562    0.15042    0.28148    1.000
    Si4623   Si       0.91308    0.18117    0.27264    1.000
    N4624    N        0.94011    0.13979    0.36886    1.000
    Si4625   Si       0.95857    0.17984    0.37407    1.000
    N4626    N        0.83987    0.16946    0.43428    1.000
    N4627    N        0.75215    0.13730    0.45558    1.000
    N4628    N        0.81344    0.13986    0.48989    1.000
    Si4629   Si       0.83627    0.13167    0.45361    1.000
    N4630    N        0.76414    0.12612    0.38031    1.000
    Si4631   Si       0.77274    0.12493    0.49175    1.000
    N4632    N        0.89566    0.13714    0.42180    1.000
    N4633    N        0.87390    0.12815    0.48149    1.000
    Si4634   Si       0.87057    0.17024    0.40312    1.000
    N4635    N        0.95249    0.13924    0.47600    1.000
    Si4636   Si       0.90958    0.14477    0.46312    1.000
    Si4637   Si       0.96997    0.17483    0.49414    1.000
    N4638    N        0.96868    0.18386    0.41710    1.000
    N4639    N        0.76587    0.16449    0.58299    1.000
    N4640    N        0.83335    0.14265    0.60359    1.000
    Si4641   Si       0.84907    0.14686    0.51356    1.000
    N4642    N        0.75133    0.14352    0.52165    1.000
    Si4643   Si       0.75247    0.12991    0.56391    1.000
    Si4644   Si       0.79346    0.15544    0.61600    1.000
    Si4645   Si       0.93810    0.16677    0.56397    1.000
    N4646    N        0.95868    0.15610    0.60016    1.000
    N4647    N        0.92046    0.13170    0.54943    1.000
    Si4648   Si       0.77504    0.17389    0.72219    1.000
    N4649    N        0.81588    0.16439    0.72359    1.000
    N4650    N        0.75199    0.16677    0.68556    1.000
    Si4651   Si       0.86389    0.15115    0.63624    1.000
    N4652    N        0.89935    0.17524    0.63791    1.000
    Si4653   Si       0.91257    0.16817    0.67849    1.000
    N4654    N        0.88379    0.17526    0.71075    1.000
    Si4655   Si       0.92521    0.14139    0.62410    1.000
    N4656    N        0.92981    0.12932    0.66642    1.000
    N4657    N        0.77677    0.15590    0.83255    1.000
    N4658    N        0.84292    0.15669    0.85068    1.000
    Si4659   Si       0.83150    0.13810    0.75736    1.000
    N4660    N        0.75211    0.15804    0.75557    1.000
    Si4661   Si       0.80406    0.16595    0.86246    1.000
    N4662    N        0.86375    0.16031    0.77724    1.000
    Si4663   Si       0.87218    0.17101    0.81765    1.000
    N4664    N        0.90488    0.15167    0.84039    1.000
    Si4665   Si       0.96027    0.13910    0.78028    1.000
    N4666    N        0.93322    0.16729    0.75948    1.000
    Si4667   Si       0.89359    0.18133    0.75267    1.000
    N4668    N        0.79529    0.14457    0.89924    1.000
    Si4669   Si       0.78559    0.16453    0.93691    1.000
    N4670    N        0.76994    0.13274    0.96122    1.000
    N4671    N        0.92260    0.17903    0.89789    1.000
    N4672    N        0.98260    0.14885    0.92694    1.000
    N4673    N        0.87400    0.12993    0.90490    1.000
    Si4674   Si       0.88098    0.16055    0.87595    1.000
    Si4675   Si       0.96446    0.18152    0.90461    1.000
    N4676    N        0.89164    0.16635    0.95660    1.000
    Si4677   Si       0.89742    0.12661    0.94010    1.000
    Si4678   Si       0.77242    0.20214    0.03366    1.000
    N4679    N        0.80586    0.22631    0.01885    1.000
    Si4680   Si       0.81453    0.20077    0.09002    1.000
    Si4681   Si       0.84690    0.22640    0.03229    1.000
    N4682    N        0.84823    0.19679    0.06467    1.000
    N4683    N        0.74597    0.23067    0.05838    1.000
    N4684    N        0.80467    0.24156    0.09860    1.000
    N4685    N        0.75233    0.18514    0.99955    1.000
    Si4686   Si       0.92034    0.22273    0.10298    1.000
    Si4687   Si       0.94378    0.22854    0.02139    1.000
    N4688    N        0.98195    0.20732    0.04511    1.000
    N4689    N        0.95018    0.19103    0.11058    1.000
    N4690    N        0.91771    0.23230    0.06095    1.000
    N4691    N        0.93775    0.18883    0.00639    1.000
    N4692    N        0.87200    0.21207    0.00080    1.000
    N4693    N        0.76387    0.20034    0.15506    1.000
    N4694    N        0.75655    0.20820    0.22572    1.000
    Si4695   Si       0.74337    0.22601    0.18715    1.000
    Si4696   Si       0.86153    0.22445    0.24367    1.000
    Si4697   Si       0.87909    0.23458    0.17116    1.000
    N4698    N        0.97977    0.22503    0.16912    1.000
    Si4699   Si       0.98801    0.20116    0.13356    1.000
    N4700    N        0.88860    0.21582    0.13265    1.000
    N4701    N        0.86836    0.20818    0.20217    1.000
    N4702    N        0.82293    0.21047    0.32372    1.000
    N4703    N        0.82566    0.19859    0.25336    1.000
    Si4704   Si       0.81447    0.19625    0.36522    1.000
    Si4705   Si       0.84662    0.18737    0.29315    1.000
    N4706    N        0.88265    0.20787    0.28076    1.000
    N4707    N        0.94489    0.21840    0.35845    1.000
    Si4708   Si       0.98388    0.22335    0.26826    1.000
    N4709    N        0.95625    0.19036    0.26382    1.000
    N4710    N        0.77135    0.19733    0.37486    1.000
    Si4711   Si       0.75676    0.22323    0.40763    1.000
    N4712    N        0.83448    0.22254    0.39338    1.000
    N4713    N        0.78767    0.22784    0.43879    1.000
    Si4714   Si       0.82970    0.21128    0.43590    1.000
    N4715    N        0.85544    0.22950    0.46531    1.000
    N4716    N        0.97204    0.21219    0.47190    1.000
    Si4717   Si       0.94044    0.20790    0.43998    1.000
    N4718    N        0.90511    0.20147    0.40340    1.000
    Si4719   Si       0.91997    0.23960    0.38675    1.000
    Si4720   Si       0.88378    0.21170    0.49353    1.000
    N4721    N        0.91069    0.18854    0.46937    1.000
    Si4722   Si       0.74890    0.20110    0.59516    1.000
    N4723    N        0.75641    0.23733    0.56901    1.000
    N4724    N        0.86016    0.18648    0.52146    1.000
    N4725    N        0.74365    0.23159    0.49403    1.000
    N4726    N        0.95997    0.18820    0.53258    1.000
    Si4727   Si       0.93908    0.22408    0.54460    1.000
    N4728    N        0.91493    0.20252    0.57517    1.000
    Si4729   Si       0.91202    0.21319    0.61793    1.000
    N4730    N        0.90863    0.23708    0.51574    1.000
    N4731    N        0.84628    0.22897    0.71013    1.000
    Si4732   Si       0.76139    0.21148    0.67387    1.000
    N4733    N        0.77616    0.21731    0.71713    1.000
    N4734    N        0.77660    0.19759    0.63364    1.000
    Si4735   Si       0.81428    0.21961    0.64043    1.000
    N4736    N        0.83726    0.18371    0.65733    1.000
    Si4737   Si       0.84353    0.18633    0.70065    1.000
    N4738    N        0.99222    0.23921    0.69461    1.000
    N4739    N        0.95407    0.22300    0.62918    1.000
    Si4740   Si       0.96831    0.21571    0.66939    1.000
    N4741    N        0.94468    0.19264    0.69395    1.000
    Si4742   Si       0.95766    0.19620    0.73540    1.000
    Si4743   Si       0.76922    0.23385    0.86273    1.000
    Si4744   Si       0.84400    0.22345    0.86322    1.000
    N4745    N        0.86920    0.21463    0.82669    1.000
    N4746    N        0.88738    0.22365    0.76142    1.000
    N4747    N        0.96035    0.23472    0.75160    1.000
    N4748    N        0.98701    0.18380    0.86543    1.000
    N4749    N        0.80333    0.20856    0.87107    1.000
    N4750    N        0.74867    0.18882    0.92681    1.000
    N4751    N        0.81204    0.19351    0.95558    1.000
    Si4752   Si       0.80761    0.23324    0.97448    1.000
    N4753    N        0.76512    0.24368    0.96351    1.000
    N4754    N        0.86560    0.19955    0.89323    1.000
    N4755    N        0.90303    0.23643    0.93855    1.000
    N4756    N        0.95265    0.24323    0.87596    1.000
    Si4757   Si       0.89390    0.19677    0.92510    1.000
    N4758    N        0.96933    0.21503    0.93260    1.000
    Si4759   Si       0.76817    0.26095    0.07988    1.000
    N4760    N        0.78713    0.29166    0.05541    1.000
    N4761    N        0.85607    0.26624    0.04120    1.000
    Si4762   Si       0.83052    0.29773    0.05805    1.000
    N4763    N        0.84584    0.29836    0.10044    1.000
    Si4764   Si       0.89743    0.26772    0.04249    1.000
    N4765    N        0.91213    0.26031    0.00338    1.000
    Si4766   Si       0.93598    0.29681    0.10120    1.000
    Si4767   Si       0.82439    0.26989    0.12572    1.000
    N4768    N        0.75540    0.26742    0.19178    1.000
    N4769    N        0.85021    0.26672    0.16104    1.000
    N4770    N        0.79040    0.29403    0.13979    1.000
    N4771    N        0.81671    0.29471    0.21083    1.000
    Si4772   Si       0.78436    0.29884    0.18256    1.000
    Si4773   Si       0.85636    0.30037    0.18800    1.000
    N4774    N        0.96280    0.29667    0.17515    1.000
    N4775    N        0.93797    0.25816    0.12114    1.000
    Si4776   Si       0.91066    0.28020    0.21871    1.000
    N4777    N        0.87676    0.26370    0.24058    1.000
    N4778    N        0.91635    0.25166    0.18670    1.000
    Si4779   Si       0.95205    0.25724    0.16358    1.000
    N4780    N        0.94894    0.28396    0.24008    1.000
    N4781    N        0.82520    0.27406    0.28420    1.000
    N4782    N        0.82584    0.27581    0.35303    1.000
    N4783    N        0.76154    0.27744    0.25864    1.000
    N4784    N        0.77002    0.25322    0.32375    1.000
    Si4785   Si       0.81249    0.25200    0.31878    1.000
    Si4786   Si       0.74679    0.27824    0.35358    1.000
    Si4787   Si       0.80033    0.29486    0.25290    1.000
    Si4788   Si       0.74045    0.26420    0.29468    1.000
    Si4789   Si       0.86656    0.28953    0.27426    1.000
    N4790    N        0.94717    0.28892    0.35054    1.000
    Si4791   Si       0.94537    0.28940    0.28284    1.000
    N4792    N        0.90446    0.29135    0.29690    1.000
    N4793    N        0.96289    0.25049    0.29592    1.000
    Si4794   Si       0.90476    0.29376    0.34135    1.000
    Si4795   Si       0.96698    0.25046    0.33845    1.000
    N4796    N        0.88975    0.26444    0.36997    1.000
    N4797    N        0.84425    0.28416    0.42345    1.000
    Si4798   Si       0.84361    0.27113    0.46566    1.000
    N4799    N        0.80496    0.27814    0.48172    1.000
    Si4800   Si       0.85106    0.26205    0.38606    1.000
    Si4801   Si       0.77066    0.25364    0.46918    1.000
    N4802    N        0.75153    0.28794    0.44972    1.000
    N4803    N        0.73871    0.25985    0.39136    1.000
    N4804    N        0.87823    0.29012    0.48587    1.000
    N4805    N        0.94226    0.24869    0.42374    1.000
    Si4806   Si       0.96830    0.28443    0.43660    1.000
    Si4807   Si       0.78672    0.26346    0.58725    1.000
    N4808    N        0.79789    0.29155    0.55696    1.000
    Si4809   Si       0.85893    0.26195    0.59764    1.000
    N4810    N        0.76587    0.28802    0.61824    1.000
    N4811    N        0.82038    0.24287    0.60410    1.000
    N4812    N        0.86382    0.27066    0.55575    1.000
    N4813    N        0.95938    0.25769    0.56361    1.000
    Si4814   Si       0.89164    0.27568    0.52369    1.000
    Si4815   Si       0.98048    0.24608    0.60226    1.000
    Si4816   Si       0.95794    0.29913    0.55412    1.000
    Si4817   Si       0.77675    0.28739    0.65978    1.000
    N4818    N        0.80527    0.28368    0.73193    1.000
    N4819    N        0.79531    0.24872    0.66767    1.000
    N4820    N        0.74870    0.29492    0.69356    1.000
    Si4821   Si       0.80585    0.24789    0.71185    1.000
    Si4822   Si       0.76532    0.30093    0.73517    1.000
    N4823    N        0.89074    0.24981    0.62442    1.000
    N4824    N        0.98889    0.29859    0.70671    1.000
    N4825    N        0.87286    0.28827    0.74421    1.000
    N4826    N        0.87046    0.29411    0.66889    1.000
    Si4827   Si       0.88192    0.24941    0.72464    1.000
    Si4828   Si       0.95715    0.26561    0.71867    1.000
    N4829    N        0.91859    0.25617    0.69668    1.000
    Si4830   Si       0.90523    0.27221    0.65842    1.000
    N4831    N        0.84382    0.27014    0.79687    1.000
    Si4832   Si       0.75489    0.28169    0.80806    1.000
    Si4833   Si       0.82050    0.28726    0.82826    1.000
    N4834    N        0.84030    0.26539    0.86413    1.000
    Si4835   Si       0.83650    0.29758    0.76129    1.000
    N4836    N        0.78396    0.25440    0.82683    1.000
    N4837    N        0.74344    0.28100    0.76625    1.000
    Si4838   Si       0.88029    0.24761    0.79923    1.000
    N4839    N        0.91805    0.26829    0.80872    1.000
    Si4840   Si       0.94020    0.27338    0.84643    1.000
    Si4841   Si       0.95839    0.26494    0.78148    1.000
    N4842    N        0.94316    0.29361    0.74957    1.000
    N4843    N        0.97518    0.24734    0.81793    1.000
    N4844    N        0.75257    0.26033    0.89232    1.000
    Si4845   Si       0.76174    0.27587    0.93362    1.000
    N4846    N        0.84003    0.26000    0.96530    1.000
    Si4847   Si       0.83630    0.29991    0.94577    1.000
    N4848    N        0.79663    0.30205    0.92659    1.000
    N4849    N        0.86675    0.30577    0.91500    1.000
    Si4850   Si       0.86691    0.29943    0.87226    1.000
    Si4851   Si       0.94134    0.28470    0.97732    1.000
    N4852    N        0.95347    0.28563    0.93281    1.000
    N4853    N        0.91016    0.29325    0.87181    1.000
    Si4854   Si       0.94162    0.24611    0.91671    1.000
    Si4855   Si       0.88146    0.24790    0.97522    1.000
    N4856    N        0.97205    0.25350    0.99255    1.000
    Si4857   Si       0.75985    0.32608    0.05535    1.000
    N4858    N        0.83508    0.33831    0.04552    1.000
    N4859    N        0.77084    0.34504    0.09242    1.000
    N4860    N        0.77206    0.35675    0.02580    1.000
    Si4861   Si       0.93436    0.33092    0.03364    1.000
    N4862    N        0.96963    0.32043    0.11189    1.000
    N4863    N        0.89762    0.34524    0.01881    1.000
    N4864    N        0.96281    0.31578    0.00429    1.000
    Si4865   Si       0.87231    0.35957    0.05206    1.000
    N4866    N        0.91982    0.29945    0.06114    1.000
    Si4867   Si       0.75762    0.31537    0.12131    1.000
    N4868    N        0.76946    0.34117    0.18738    1.000
    N4869    N        0.85230    0.33607    0.16162    1.000
    N4870    N        0.96721    0.34913    0.22477    1.000
    Si4871   Si       0.89178    0.34766    0.23882    1.000
    Si4872   Si       0.86775    0.32963    0.12423    1.000
    N4873    N        0.90956    0.31843    0.13091    1.000
    N4874    N        0.89387    0.31926    0.20670    1.000
    Si4875   Si       0.94697    0.32827    0.14914    1.000
    Si4876   Si       0.97836    0.30742    0.21604    1.000
    N4877    N        0.82513    0.34074    0.32029    1.000
    Si4878   Si       0.81070    0.31529    0.35082    1.000
    N4879    N        0.76940    0.31415    0.36028    1.000
    N4880    N        0.79436    0.33935    0.25444    1.000
    Si4881   Si       0.82665    0.35615    0.27948    1.000
    N4882    N        0.85839    0.33120    0.26229    1.000
    Si4883   Si       0.85487    0.36201    0.34947    1.000
    Si4884   Si       0.74132    0.34687    0.37018    1.000
    N4885    N        0.97168    0.32357    0.28921    1.000
    N4886    N        0.89090    0.33343    0.34877    1.000
    Si4887   Si       0.96122    0.35950    0.26741    1.000
    Si4888   Si       0.97345    0.31811    0.36923    1.000
    N4889    N        0.83066    0.33893    0.38092    1.000
    Si4890   Si       0.78372    0.31440    0.46510    1.000
    N4891    N        0.80299    0.33913    0.43595    1.000
    Si4892   Si       0.84184    0.32764    0.42021    1.000
    N4893    N        0.93853    0.31571    0.44658    1.000
    N4894    N        0.90287    0.35632    0.49502    1.000
    N4895    N        0.94553    0.34913    0.38251    1.000
    Si4896   Si       0.92673    0.35054    0.42131    1.000
    Si4897   Si       0.90012    0.32202    0.46753    1.000
    N4898    N        0.88298    0.34022    0.43025    1.000
    N4899    N        0.85248    0.34296    0.54318    1.000
    Si4900   Si       0.76691    0.31369    0.53508    1.000
    N4901    N        0.75308    0.33860    0.56893    1.000
    Si4902   Si       0.83835    0.30506    0.56158    1.000
    N4903    N        0.77036    0.33821    0.49930    1.000
    N4904    N        0.84662    0.30538    0.60503    1.000
    N4905    N        0.96096    0.32909    0.58647    1.000
    Si4906   Si       0.89547    0.34483    0.53566    1.000
    N4907    N        0.91846    0.30613    0.53691    1.000
    Si4908   Si       0.84150    0.31574    0.64581    1.000
    N4909    N        0.80242    0.32309    0.66293    1.000
    Si4910   Si       0.90657    0.31367    0.74572    1.000
    N4911    N        0.86133    0.35404    0.65279    1.000
    N4912    N        0.97894    0.34907    0.64949    1.000
    Si4913   Si       0.89822    0.33360    0.66801    1.000
    Si4914   Si       0.96575    0.31503    0.62691    1.000
    N4915    N        0.97040    0.35576    0.72007    1.000
    N4916    N        0.92871    0.30576    0.64679    1.000
    N4917    N        0.90573    0.33645    0.71003    1.000
    Si4918   Si       0.79097    0.34729    0.78759    1.000
    N4919    N        0.82926    0.33938    0.77025    1.000
    N4920    N        0.78820    0.31140    0.81099    1.000
    N4921    N        0.76574    0.34509    0.75142    1.000
    N4922    N        0.84739    0.32388    0.84400    1.000
    N4923    N        0.89884    0.34528    0.77462    1.000
    N4924    N        0.96730    0.34747    0.78739    1.000
    N4925    N        0.96737    0.30895    0.85240    1.000
    Si4926   Si       0.98120    0.32228    0.75019    1.000
    Si4927   Si       0.93710    0.33950    0.86551    1.000
    N4928    N        0.91058    0.35890    0.83901    1.000
    N4929    N        0.74979    0.32679    0.87712    1.000
    N4930    N        0.84137    0.33548    0.97100    1.000
    Si4931   Si       0.77016    0.33854    0.91970    1.000
    Si4932   Si       0.98020    0.35099    0.98000    1.000
    N4933    N        0.90709    0.30972    0.96485    1.000
    Si4934   Si       0.88278    0.34377    0.97741    1.000
    N4935    N        0.92801    0.34421    0.90743    1.000
    Si4936   Si       0.91119    0.30827    0.92017    1.000
    Si4937   Si       0.76880    0.38752    0.09400    1.000
    N4938    N        0.80546    0.39937    0.07255    1.000
    Si4939   Si       0.80972    0.37240    0.03855    1.000
    N4940    N        0.82717    0.39517    0.00532    1.000
    N4941    N        0.74214    0.41543    0.00014    1.000
    N4942    N        0.95380    0.36825    0.04701    1.000
    N4943    N        0.88358    0.40223    0.04622    1.000
    Si4944   Si       0.88145    0.40168    0.11062    1.000
    N4945    N        0.92463    0.40120    0.10109    1.000
    Si4946   Si       0.92632    0.40278    0.05621    1.000
    N4947    N        0.87168    0.36161    0.09679    1.000
    Si4948   Si       0.74352    0.36763    0.16383    1.000
    N4949    N        0.76660    0.40475    0.23003    1.000
    N4950    N        0.81681    0.38435    0.19852    1.000
    N4951    N        0.76185    0.39740    0.13833    1.000
    Si4952   Si       0.85633    0.37538    0.18260    1.000
    Si4953   Si       0.78675    0.36400    0.22010    1.000
    Si4954   Si       0.97903    0.37677    0.19342    1.000
    N4955    N        0.87894    0.38530    0.21852    1.000
    N4956    N        0.87604    0.40432    0.15474    1.000
    N4957    N        0.95219    0.37125    0.15933    1.000
    Si4958   Si       0.95512    0.40591    0.13161    1.000
    N4959    N        0.81157    0.39686    0.28470    1.000
    N4960    N        0.82467    0.39765    0.35914    1.000
    Si4961   Si       0.83242    0.41240    0.31827    1.000
    N4962    N        0.74469    0.41240    0.30252    1.000
    Si4963   Si       0.77598    0.41496    0.27289    1.000
    N4964    N        0.86762    0.38787    0.31472    1.000
    Si4965   Si       0.97314    0.40847    0.32165    1.000
    N4966    N        0.93237    0.39784    0.32839    1.000
    Si4967   Si       0.90496    0.39958    0.29496    1.000
    N4968    N        0.97919    0.39532    0.27988    1.000
    Si4969   Si       0.91821    0.36901    0.35605    1.000
    N4970    N        0.91883    0.36655    0.26941    1.000
    N4971    N        0.76090    0.38103    0.38719    1.000
    N4972    N        0.83283    0.39584    0.42203    1.000
    Si4973   Si       0.80226    0.37213    0.40138    1.000
    Si4974   Si       0.85272    0.41429    0.38755    1.000
    N4975    N        0.75964    0.41060    0.46213    1.000
    Si4976   Si       0.83340    0.41152    0.46185    1.000
    Si4977   Si       0.77289    0.38202    0.49334    1.000
    N4978    N        0.93426    0.39039    0.43826    1.000
    Si4979   Si       0.90979    0.39258    0.47499    1.000
    N4980    N        0.88564    0.38916    0.37655    1.000
    N4981    N        0.87454    0.41939    0.47346    1.000
    N4982    N        0.80404    0.38816    0.56748    1.000
    Si4983   Si       0.81674    0.40439    0.60629    1.000
    Si4984   Si       0.83346    0.38172    0.53454    1.000
    Si4985   Si       0.76289    0.38018    0.56632    1.000
    N4986    N        0.85717    0.40037    0.60817    1.000
    N4987    N        0.74970    0.40839    0.59705    1.000
    N4988    N        0.74780    0.39287    0.52719    1.000
    N4989    N        0.81486    0.39188    0.49600    1.000
    N4990    N        0.86355    0.41170    0.54043    1.000
    N4991    N        0.97368    0.37691    0.53174    1.000
    N4992    N        0.97510    0.38973    0.60004    1.000
    N4993    N        0.91021    0.37520    0.56401    1.000
    Si4994   Si       0.88719    0.41081    0.57799    1.000
    Si4995   Si       0.95304    0.36986    0.56973    1.000
    N4996    N        0.91524    0.41455    0.62067    1.000
    N4997    N        0.92844    0.41930    0.50516    1.000
    Si4998   Si       0.75074    0.38856    0.63528    1.000
    N4999    N        0.80522    0.38820    0.70988    1.000
    N5000    N        0.79409    0.38667    0.64040    1.000
    Si5001   Si       0.76414    0.38361    0.72759    1.000
    Si5002   Si       0.84072    0.41451    0.71336    1.000
    N5003    N        0.75366    0.36604    0.68839    1.000
    Si5004   Si       0.79757    0.36301    0.67693    1.000
    Si5005   Si       0.88110    0.39200    0.64619    1.000
    Si5006   Si       0.95192    0.38604    0.63791    1.000
    N5007    N        0.92012    0.37252    0.66407    1.000
    N5008    N        0.87155    0.39850    0.74136    1.000
    Si5009   Si       0.93221    0.37009    0.70720    1.000
    N5010    N        0.93524    0.40943    0.72346    1.000
    N5011    N        0.77161    0.37507    0.81675    1.000
    Si5012   Si       0.74077    0.40537    0.82259    1.000
    Si5013   Si       0.86222    0.36754    0.77158    1.000
    Si5014   Si       0.76276    0.36154    0.85739    1.000
    N5015    N        0.85964    0.38808    0.80812    1.000
    N5016    N        0.93083    0.40900    0.79253    1.000
    N5017    N        0.97160    0.37225    0.86725    1.000
    Si5018   Si       0.93017    0.36569    0.79957    1.000
    Si5019   Si       0.86854    0.36327    0.84075    1.000
    Si5020   Si       0.81748    0.37192    0.96725    1.000
    Si5021   Si       0.82173    0.39757    0.89606    1.000
    N5022    N        0.83007    0.40006    0.93762    1.000
    Si5023   Si       0.75186    0.37290    0.99115    1.000
    N5024    N        0.79243    0.36776    0.89216    1.000
    N5025    N        0.85901    0.38823    0.87666    1.000
    N5026    N        0.77722    0.36224    0.95720    1.000
    N5027    N        0.89098    0.38068    0.95510    1.000
    N5028    N        0.96006    0.38307    0.95952    1.000
    N5029    N        0.92497    0.41068    0.90015    1.000
    Si5030   Si       0.92683    0.38005    0.93109    1.000
    Si5031   Si       0.96270    0.41313    0.87904    1.000
    Si5032   Si       0.86832    0.41924    0.95244    1.000
    Si5033   Si       0.88533    0.42154    0.88306    1.000
    N5034    N        0.83386    0.45542    0.04309    1.000
    N5035    N        0.79335    0.45872    0.10542    1.000
    Si5036   Si       0.82099    0.43719    0.08084    1.000
    N5037    N        0.85891    0.43816    0.10194    1.000
    Si5038   Si       0.85448    0.42526    0.02234    1.000
    N5039    N        0.96428    0.45389    0.09493    1.000
    N5040    N        0.93783    0.43622    0.03372    1.000
    Si5041   Si       0.94979    0.47110    0.05753    1.000
    Si5042   Si       0.92028    0.45786    0.99845    1.000
    Si5043   Si       0.93571    0.47414    0.12154    1.000
    Si5044   Si       0.80325    0.42720    0.20866    1.000
    Si5045   Si       0.77095    0.44030    0.14003    1.000
    N5046    N        0.78950    0.45283    0.17721    1.000
    N5047    N        0.84098    0.44601    0.21900    1.000
    Si5048   Si       0.88061    0.42816    0.23303    1.000
    Si5049   Si       0.89424    0.44417    0.16544    1.000
    Si5050   Si       0.95097    0.44772    0.19317    1.000
    N5051    N        0.93819    0.43967    0.15214    1.000
    N5052    N        0.90760    0.44940    0.20600    1.000
    N5053    N        0.97440    0.41641    0.21208    1.000
    N5054    N        0.83499    0.45507    0.31567    1.000
    N5055    N        0.78404    0.45716    0.26879    1.000
    N5056    N        0.76776    0.46909    0.33833    1.000
    Si5057   Si       0.79726    0.47470    0.30623    1.000
    Si5058   Si       0.87009    0.46988    0.29387    1.000
    N5059    N        0.97356    0.45098    0.32743    1.000
    N5060    N        0.89272    0.43657    0.27509    1.000
    N5061    N        0.97696    0.46547    0.25958    1.000
    Si5062   Si       0.96270    0.46063    0.36723    1.000
    N5063    N        0.81615    0.44927    0.44748    1.000
    N5064    N        0.74923    0.45029    0.40767    1.000
    Si5065   Si       0.77215    0.44982    0.44688    1.000
    N5066    N        0.86166    0.45564    0.38879    1.000
    Si5067   Si       0.83636    0.47562    0.41865    1.000
    N5068    N        0.98569    0.42476    0.46949    1.000
    Si5069   Si       0.95768    0.42938    0.43590    1.000
    N5070    N        0.92284    0.47521    0.37439    1.000
    N5071    N        0.97537    0.42997    0.39653    1.000
    N5072    N        0.93350    0.46868    0.44179    1.000
    Si5073   Si       0.76626    0.44746    0.58628    1.000
    N5074    N        0.80611    0.44670    0.60531    1.000
    N5075    N        0.76171    0.47121    0.54921    1.000
    N5076    N        0.74441    0.47430    0.61326    1.000
    N5077    N        0.90184    0.45383    0.57013    1.000
    N5078    N        0.96866    0.46019    0.60168    1.000
    Si5079   Si       0.92657    0.45455    0.60710    1.000
    Si5080   Si       0.88875    0.43501    0.51170    1.000
    N5081    N        0.98578    0.44592    0.53704    1.000
    N5082    N        0.89164    0.47659    0.50763    1.000
    Si5083   Si       0.97155    0.41664    0.50989    1.000
    N5084    N        0.83249    0.45752    0.72617    1.000
    Si5085   Si       0.81262    0.47971    0.63286    1.000
    N5086    N        0.91657    0.46466    0.69677    1.000
    N5087    N        0.96674    0.42092    0.66022    1.000
    Si5088   Si       0.88280    0.45901    0.66853    1.000
    N5089    N        0.98748    0.45722    0.71426    1.000
    Si5090   Si       0.95182    0.43968    0.69569    1.000
    N5091    N        0.86739    0.41876    0.67799    1.000
    N5092    N        0.90380    0.47971    0.63325    1.000
    N5093    N        0.75604    0.44566    0.82206    1.000
    N5094    N        0.82632    0.44830    0.80355    1.000
    Si5095   Si       0.79726    0.45213    0.83457    1.000
    Si5096   Si       0.84013    0.46756    0.76751    1.000
    N5097    N        0.80472    0.42939    0.86741    1.000
    Si5098   Si       0.86572    0.43023    0.81156    1.000
    N5099    N        0.88715    0.44490    0.84638    1.000
    N5100    N        0.88310    0.45224    0.77671    1.000
    N5101    N        0.97261    0.43895    0.84372    1.000
    Si5102   Si       0.96480    0.43443    0.80132    1.000
    N5103    N        0.95130    0.46794    0.77411    1.000
    Si5104   Si       0.90736    0.42195    0.75719    1.000
    N5105    N        0.74247    0.43585    0.92451    1.000
    Si5106   Si       0.77191    0.46923    0.92092    1.000
    N5107    N        0.77157    0.47500    0.96589    1.000
    N5108    N        0.87884    0.44125    0.98932    1.000
    N5109    N        0.98835    0.42600    0.91310    1.000
    N5110    N        0.93764    0.45067    0.95850    1.000
    Si5111   Si       0.97266    0.42504    0.95419    1.000
    N5112    N        0.87470    0.44556    0.91899    1.000
    Si5113   Si       0.91369    0.46689    0.92619    1.000
    Si5114   Si       0.79800    0.50165    0.10611    1.000
    Si5115   Si       0.83696    0.50062    0.04276    1.000
    N5116    N        0.83897    0.50286    0.08820    1.000
    N5117    N        0.80352    0.51719    0.02580    1.000
    N5118    N        0.76739    0.52810    0.08820    1.000
    N5119    N        0.74482    0.51996    0.01040    1.000
    Si5120   Si       0.76846    0.53642    0.04438    1.000
    N5121    N        0.86877    0.52932    0.03361    1.000
    Si5122   Si       0.90555    0.51430    0.05159    1.000
    Si5123   Si       0.96829    0.52219    0.02312    1.000
    N5124    N        0.93221    0.49466    0.02091    1.000
    N5125    N        0.98761    0.49514    0.05076    1.000
    N5126    N        0.90970    0.48482    0.08216    1.000
    Si5127   Si       0.87147    0.47870    0.10449    1.000
    Si5128   Si       0.84001    0.48998    0.22586    1.000
    Si5129   Si       0.78753    0.49541    0.17759    1.000
    N5130    N        0.80820    0.51708    0.14606    1.000
    N5131    N        0.80173    0.50793    0.21777    1.000
    N5132    N        0.74400    0.50718    0.17801    1.000
    N5133    N        0.88946    0.48159    0.14351    1.000
    Si5134   Si       0.88798    0.51950    0.16761    1.000
    N5135    N        0.94860    0.51395    0.12963    1.000
    N5136    N        0.98186    0.53427    0.24004    1.000
    N5137    N        0.96628    0.48745    0.19250    1.000
    N5138    N        0.86955    0.51278    0.20658    1.000
    Si5139   Si       0.95701    0.52207    0.17027    1.000
    N5140    N        0.79179    0.51591    0.29089    1.000
    N5141    N        0.84893    0.49834    0.26762    1.000
    Si5142   Si       0.77601    0.49760    0.25395    1.000
    Si5143   Si       0.82899    0.53449    0.28371    1.000
    N5144    N        0.88802    0.49627    0.32215    1.000
    N5145    N        0.96516    0.51665    0.30721    1.000
    Si5146   Si       0.88222    0.48556    0.36476    1.000
    Si5147   Si       0.89818    0.53795    0.30990    1.000
    Si5148   Si       0.98637    0.48073    0.29888    1.000
    Si5149   Si       0.76663    0.52440    0.47710    1.000
    N5150    N        0.80579    0.49642    0.39492    1.000
    N5151    N        0.75510    0.48708    0.45713    1.000
    Si5152   Si       0.84289    0.52760    0.46635    1.000
    Si5153   Si       0.82643    0.53572    0.39122    1.000
    Si5154   Si       0.76707    0.48082    0.38043    1.000
    N5155    N        0.73735    0.51193    0.39063    1.000
    Si5156   Si       0.90382    0.48784    0.46642    1.000
    Si5157   Si       0.94183    0.49882    0.40995    1.000
    N5158    N        0.86618    0.52640    0.37545    1.000
    N5159    N        0.92188    0.52674    0.47620    1.000
    N5160    N        0.98123    0.49157    0.39245    1.000
    N5161    N        0.86493    0.49565    0.44614    1.000
    N5162    N        0.85437    0.50766    0.55441    1.000
    N5163    N        0.80468    0.51543    0.60810    1.000
    Si5164   Si       0.76082    0.51420    0.60570    1.000
    Si5165   Si       0.83941    0.53048    0.58905    1.000
    N5166    N        0.80734    0.51932    0.49372    1.000
    N5167    N        0.74055    0.53166    0.57135    1.000
    Si5168   Si       0.89273    0.49178    0.54853    1.000
    N5169    N        0.92556    0.51985    0.55327    1.000
    Si5170   Si       0.95421    0.53478    0.58129    1.000
    N5171    N        0.98919    0.51500    0.56806    1.000
    N5172    N        0.84698    0.48010    0.66212    1.000
    N5173    N        0.82202    0.52631    0.71455    1.000
    Si5174   Si       0.81918    0.48663    0.69685    1.000
    N5175    N        0.75150    0.52288    0.71167    1.000
    Si5176   Si       0.74550    0.50608    0.67089    1.000
    N5177    N        0.78467    0.48704    0.66735    1.000
    N5178    N        0.74149    0.53651    0.63898    1.000
    N5179    N        0.95546    0.51934    0.71929    1.000
    Si5180   Si       0.90541    0.52282    0.63629    1.000
    N5181    N        0.89631    0.53112    0.67864    1.000
    Si5182   Si       0.91462    0.50752    0.70916    1.000
    Si5183   Si       0.97691    0.48812    0.74230    1.000
    N5184    N        0.83141    0.50861    0.77765    1.000
    N5185    N        0.75832    0.50887    0.78867    1.000
    Si5186   Si       0.79917    0.51701    0.80366    1.000
    N5187    N        0.80086    0.49646    0.84085    1.000
    Si5188   Si       0.74487    0.53190    0.75474    1.000
    Si5189   Si       0.85046    0.53172    0.74631    1.000
    N5190    N        0.90850    0.50866    0.81722    1.000
    Si5191   Si       0.91242    0.48614    0.77973    1.000
    Si5192   Si       0.90131    0.48648    0.85610    1.000
    N5193    N        0.89323    0.51092    0.74767    1.000
    N5194    N        0.81217    0.48318    0.91530    1.000
    N5195    N        0.75676    0.49813    0.89149    1.000
    Si5196   Si       0.78025    0.51175    0.98673    1.000
    Si5197   Si       0.79876    0.50686    0.88208    1.000
    Si5198   Si       0.85545    0.48558    0.91461    1.000
    N5199    N        0.98897    0.51382    0.98518    1.000
    N5200    N        0.88777    0.50087    0.94079    1.000
    N5201    N        0.86759    0.50315    0.87707    1.000
    N5202    N        0.92899    0.48159    0.88907    1.000
    N5203    N        0.76251    0.57779    0.04122    1.000
    N5204    N        0.82971    0.58786    0.00944    1.000
    Si5205   Si       0.86817    0.56675    0.01435    1.000
    Si5206   Si       0.93927    0.57920    0.04177    1.000
    N5207    N        0.97414    0.56618    0.01528    1.000
    Si5208   Si       0.95286    0.54733    0.10145    1.000
    N5209    N        0.89739    0.59124    0.03667    1.000
    N5210    N        0.92878    0.58204    0.11527    1.000
    N5211    N        0.93775    0.54022    0.06145    1.000
    N5212    N        0.80321    0.58940    0.12832    1.000
    Si5213   Si       0.82475    0.55563    0.14641    1.000
    N5214    N        0.76329    0.56922    0.21191    1.000
    Si5215   Si       0.80404    0.55501    0.21469    1.000
    N5216    N        0.83032    0.57069    0.18556    1.000
    N5217    N        0.73976    0.56754    0.14852    1.000
    Si5218   Si       0.88853    0.58527    0.12965    1.000
    N5219    N        0.86846    0.54973    0.14096    1.000
    N5220    N        0.87727    0.57712    0.23156    1.000
    Si5221   Si       0.89915    0.53881    0.22765    1.000
    N5222    N        0.92118    0.53792    0.18803    1.000
    Si5223   Si       0.77132    0.58353    0.35388    1.000
    N5224    N        0.81525    0.56609    0.25458    1.000
    Si5225   Si       0.77874    0.58554    0.27388    1.000
    N5226    N        0.79264    0.58916    0.31540    1.000
    Si5227   Si       0.85187    0.58934    0.26485    1.000
    N5228    N        0.85970    0.55900    0.29745    1.000
    Si5229   Si       0.94999    0.58998    0.33573    1.000
    N5230    N        0.91527    0.56520    0.34245    1.000
    N5231    N        0.96546    0.58237    0.29570    1.000
    Si5232   Si       0.95773    0.54482    0.27447    1.000
    N5233    N        0.97882    0.58393    0.36937    1.000
    N5234    N        0.91635    0.53710    0.26767    1.000
    N5235    N        0.80397    0.57120    0.38117    1.000
    Si5236   Si       0.79532    0.57305    0.42472    1.000
    N5237    N        0.76309    0.55968    0.45160    1.000
    N5238    N        0.82795    0.54858    0.43288    1.000
    N5239    N        0.97041    0.57457    0.44386    1.000
    N5240    N        0.92286    0.53817    0.40896    1.000
    N5241    N        0.90339    0.59114    0.45469    1.000
    Si5242   Si       0.89515    0.55883    0.38210    1.000
    Si5243   Si       0.93002    0.55929    0.44775    1.000
    N5244    N        0.86832    0.59088    0.39657    1.000
    N5245    N        0.82485    0.56372    0.56222    1.000
    N5246    N        0.77038    0.58285    0.60499    1.000
    N5247    N        0.85930    0.55633    0.49668    1.000
    Si5248   Si       0.83290    0.53765    0.52719    1.000
    Si5249   Si       0.80882    0.59502    0.58924    1.000
    N5250    N        0.97994    0.54114    0.50814    1.000
    N5251    N        0.91911    0.57832    0.52194    1.000
    N5252    N        0.96169    0.57653    0.57388    1.000
    Si5253   Si       0.87676    0.58652    0.61525    1.000
    N5254    N        0.87417    0.54156    0.61147    1.000
    Si5255   Si       0.93619    0.54002    0.51552    1.000
    Si5256   Si       0.88644    0.59159    0.49576    1.000
    Si5257   Si       0.75608    0.57864    0.64641    1.000
    N5258    N        0.78738    0.57497    0.67464    1.000
    Si5259   Si       0.78588    0.55132    0.71194    1.000
    N5260    N        0.85442    0.59511    0.69164    1.000
    N5261    N        0.83572    0.59370    0.62440    1.000
    Si5262   Si       0.95588    0.56259    0.71729    1.000
    N5263    N        0.90367    0.59016    0.64786    1.000
    Si5264   Si       0.89119    0.57301    0.68602    1.000
    N5265    N        0.91468    0.57542    0.72285    1.000
    N5266    N        0.97252    0.57572    0.67773    1.000
    Si5267   Si       0.94517    0.57987    0.64158    1.000
    N5268    N        0.94276    0.53932    0.62254    1.000
    N5269    N        0.80099    0.56022    0.80949    1.000
    Si5270   Si       0.83973    0.57604    0.80733    1.000
    N5271    N        0.85734    0.56876    0.76671    1.000
    Si5272   Si       0.77295    0.59390    0.82069    1.000
    N5273    N        0.76558    0.56888    0.74822    1.000
    N5274    N        0.86747    0.56083    0.83872    1.000
    Si5275   Si       0.97904    0.57209    0.83559    1.000
    Si5276   Si       0.90747    0.55209    0.82018    1.000
    N5277    N        0.93891    0.56142    0.85050    1.000
    Si5278   Si       0.89418    0.59026    0.75745    1.000
    N5279    N        0.91302    0.58844    0.79433    1.000
    N5280    N        0.98329    0.57601    0.74708    1.000
    Si5281   Si       0.85688    0.54551    0.87818    1.000
    N5282    N        0.79341    0.54390    0.96138    1.000
    Si5283   Si       0.82577    0.57299    0.96992    1.000
    Si5284   Si       0.79259    0.56599    0.92189    1.000
    N5285    N        0.75479    0.58277    0.90752    1.000
    N5286    N        0.81484    0.54709    0.88955    1.000
    Si5287   Si       0.98139    0.55467    0.96773    1.000
    N5288    N        0.94066    0.55619    0.95400    1.000
    N5289    N        0.86955    0.55980    0.97172    1.000
    N5290    N        0.88930    0.56117    0.90467    1.000
    Si5291   Si       0.91563    0.58528    0.87973    1.000
    Si5292   Si       0.89997    0.54295    0.94463    1.000
    Si5293   Si       0.81894    0.62277    0.10548    1.000
    Si5294   Si       0.81736    0.62459    0.02631    1.000
    Si5295   Si       0.75362    0.60717    0.07461    1.000
    N5296    N        0.79915    0.62380    0.06688    1.000
    N5297    N        0.75032    0.62978    0.11290    1.000
    Si5298   Si       0.75070    0.61015    0.01479    1.000
    N5299    N        0.85602    0.64479    0.03487    1.000
    N5300    N        0.86015    0.60611    0.09946    1.000
    N5301    N        0.78238    0.63388    0.99609    1.000
    N5302    N        0.96445    0.60301    0.06552    1.000
    Si5303   Si       0.88134    0.61956    0.06504    1.000
    Si5304   Si       0.94493    0.61894    0.10187    1.000
    N5305    N        0.91187    0.64165    0.08408    1.000
    Si5306   Si       0.76457    0.60323    0.14448    1.000
    N5307    N        0.77552    0.62793    0.17730    1.000
    Si5308   Si       0.75901    0.61400    0.21377    1.000
    N5309    N        0.84938    0.63539    0.21071    1.000
    Si5310   Si       0.86318    0.59750    0.19597    1.000
    N5311    N        0.89289    0.60750    0.16577    1.000
    Si5312   Si       0.92048    0.64197    0.16706    1.000
    Si5313   Si       0.97947    0.64016    0.22252    1.000
    N5314    N        0.93769    0.64526    0.20831    1.000
    N5315    N        0.95486    0.63958    0.13931    1.000
    N5316    N        0.84752    0.62572    0.28701    1.000
    Si5317   Si       0.81795    0.62433    0.31844    1.000
    N5318    N        0.83527    0.63203    0.35635    1.000
    N5319    N        0.76544    0.62526    0.36417    1.000
    N5320    N        0.77931    0.62468    0.24991    1.000
    Si5321   Si       0.75366    0.65262    0.33285    1.000
    N5322    N        0.96787    0.64655    0.26616    1.000
    N5323    N        0.93803    0.63277    0.32973    1.000
    Si5324   Si       0.93051    0.64868    0.37017    1.000
    Si5325   Si       0.82939    0.60809    0.39151    1.000
    N5326    N        0.80190    0.61625    0.42788    1.000
    Si5327   Si       0.78224    0.64653    0.45635    1.000
    N5328    N        0.75480    0.62156    0.48094    1.000
    Si5329   Si       0.74590    0.64496    0.40039    1.000
    N5330    N        0.86709    0.65273    0.43689    1.000
    Si5331   Si       0.97164    0.60234    0.40924    1.000
    Si5332   Si       0.89249    0.61886    0.42209    1.000
    N5333    N        0.93190    0.62039    0.40266    1.000
    N5334    N        0.80741    0.63643    0.57802    1.000
    N5335    N        0.89389    0.61034    0.58419    1.000
    N5336    N        0.94099    0.63711    0.53909    1.000
    N5337    N        0.87680    0.63191    0.50301    1.000
    Si5338   Si       0.92910    0.60015    0.55732    1.000
    Si5339   Si       0.98016    0.65484    0.54007    1.000
    Si5340   Si       0.88698    0.65263    0.59300    1.000
    Si5341   Si       0.78399    0.64334    0.70706    1.000
    Si5342   Si       0.85671    0.63210    0.71718    1.000
    N5343    N        0.80623    0.63959    0.66942    1.000
    N5344    N        0.81746    0.63185    0.73589    1.000
    N5345    N        0.74386    0.62731    0.71646    1.000
    Si5346   Si       0.82159    0.59751    0.66450    1.000
    N5347    N        0.96370    0.61725    0.63071    1.000
    N5348    N        0.96381    0.64355    0.74007    1.000
    N5349    N        0.83344    0.62009    0.80946    1.000
    Si5350   Si       0.80819    0.64046    0.77786    1.000
    N5351    N        0.76998    0.62205    0.78726    1.000
    Si5352   Si       0.82456    0.63690    0.85062    1.000
    N5353    N        0.79034    0.61010    0.85800    1.000
    Si5354   Si       0.74631    0.60736    0.75493    1.000
    N5355    N        0.90589    0.62013    0.85557    1.000
    Si5356   Si       0.93022    0.62102    0.81774    1.000
    N5357    N        0.97441    0.60851    0.80913    1.000
    Si5358   Si       0.98292    0.61595    0.76660    1.000
    Si5359   Si       0.92388    0.65898    0.75279    1.000
    N5360    N        0.88952    0.63160    0.74535    1.000
    N5361    N        0.82048    0.59752    0.93572    1.000
    Si5362   Si       0.75136    0.61053    0.87535    1.000
    Si5363   Si       0.83114    0.63985    0.92866    1.000
    N5364    N        0.84934    0.64320    0.88827    1.000
    N5365    N        0.74016    0.65115    0.88625    1.000
    N5366    N        0.94311    0.60706    0.90709    1.000
    Si5367   Si       0.88603    0.63781    0.99650    1.000
    N5368    N        0.98615    0.60391    0.96113    1.000
    N5369    N        0.91707    0.61967    0.97338    1.000
    Si5370   Si       0.94894    0.64932    0.89684    1.000
    Si5371   Si       0.94483    0.59947    0.94899    1.000
    Si5372   Si       0.83190    0.70290    0.11035    1.000
    N5373    N        0.84165    0.71037    0.00891    1.000
    N5374    N        0.82019    0.66143    0.12693    1.000
    N5375    N        0.86489    0.69583    0.08497    1.000
    Si5376   Si       0.86968    0.69078    0.03871    1.000
    Si5377   Si       0.90262    0.68003    0.10358    1.000
    N5378    N        0.89844    0.67968    0.00397    1.000
    N5379    N        0.93083    0.71434    0.09884    1.000
    Si5380   Si       0.84636    0.67833    0.21486    1.000
    N5381    N        0.81239    0.68766    0.19168    1.000
    N5382    N        0.75978    0.68758    0.14580    1.000
    Si5383   Si       0.79246    0.66423    0.16229    1.000
    Si5384   Si       0.98061    0.67170    0.15500    1.000
    N5385    N        0.90079    0.67476    0.14623    1.000
    Si5386   Si       0.91899    0.67244    0.23570    1.000
    N5387    N        0.94496    0.70883    0.24248    1.000
    N5388    N        0.88779    0.69425    0.21046    1.000
    Si5389   Si       0.91074    0.70820    0.17397    1.000
    N5390    N        0.95484    0.70237    0.17302    1.000
    N5391    N        0.82977    0.68584    0.25536    1.000
    Si5392   Si       0.85610    0.67082    0.35569    1.000
    Si5393   Si       0.79253    0.66293    0.26463    1.000
    N5394    N        0.85696    0.68907    0.31870    1.000
    N5395    N        0.76059    0.68956    0.25245    1.000
    N5396    N        0.73760    0.69265    0.31570    1.000
    N5397    N        0.79109    0.65665    0.30790    1.000
    Si5398   Si       0.86078    0.66596    0.28194    1.000
    N5399    N        0.95023    0.69916    0.31274    1.000
    Si5400   Si       0.96625    0.70785    0.35283    1.000
    N5401    N        0.90228    0.66160    0.27277    1.000
    Si5402   Si       0.93962    0.66034    0.29669    1.000
    N5403    N        0.83661    0.69476    0.38564    1.000
    N5404    N        0.75863    0.67302    0.43062    1.000
    N5405    N        0.81010    0.66742    0.48155    1.000
    Si5406   Si       0.85374    0.66056    0.47871    1.000
    Si5407   Si       0.75166    0.71570    0.42734    1.000
    N5408    N        0.89283    0.66733    0.37711    1.000
    N5409    N        0.96207    0.67563    0.38118    1.000
    Si5410   Si       0.97359    0.69852    0.48853    1.000
    Si5411   Si       0.87330    0.68752    0.41004    1.000
    N5412    N        0.97840    0.70706    0.44686    1.000
    Si5413   Si       0.90512    0.71154    0.47419    1.000
    Si5414   Si       0.98633    0.67452    0.41648    1.000
    N5415    N        0.87133    0.69687    0.49618    1.000
    N5416    N        0.93320    0.68820    0.49444    1.000
    N5417    N        0.82636    0.69619    0.54670    1.000
    Si5418   Si       0.82375    0.67654    0.58497    1.000
    N5419    N        0.78515    0.69369    0.59906    1.000
    Si5420   Si       0.79302    0.69024    0.51774    1.000
    N5421    N        0.85365    0.66862    0.61575    1.000
    N5422    N        0.76460    0.66227    0.53797    1.000
    Si5423   Si       0.76815    0.65517    0.58025    1.000
    Si5424   Si       0.86628    0.70943    0.53804    1.000
    N5425    N        0.88850    0.67639    0.55555    1.000
    N5426    N        0.97535    0.69359    0.55873    1.000
    N5427    N        0.91798    0.67119    0.61530    1.000
    Si5428   Si       0.90809    0.65947    0.52065    1.000
    Si5429   Si       0.97234    0.71213    0.59626    1.000
    Si5430   Si       0.90465    0.71261    0.62017    1.000
    Si5431   Si       0.83887    0.66766    0.65733    1.000
    N5432    N        0.77665    0.68602    0.71386    1.000
    N5433    N        0.82268    0.70712    0.66494    1.000
    N5434    N        0.94286    0.65781    0.68022    1.000
    Si5435   Si       0.98106    0.65850    0.70102    1.000
    N5436    N        0.91495    0.69554    0.72995    1.000
    N5437    N        0.98038    0.68997    0.63332    1.000
    Si5438   Si       0.90719    0.68186    0.68871    1.000
    N5439    N        0.86917    0.66073    0.68569    1.000
    Si5440   Si       0.95193    0.65773    0.63877    1.000
    N5441    N        0.79540    0.68219    0.78071    1.000
    N5442    N        0.80225    0.67403    0.85031    1.000
    Si5443   Si       0.80726    0.70317    0.81584    1.000
    Si5444   Si       0.76339    0.69523    0.75415    1.000
    N5445    N        0.89068    0.68880    0.84820    1.000
    Si5446   Si       0.93048    0.68815    0.82941    1.000
    N5447    N        0.95382    0.66099    0.85467    1.000
    N5448    N        0.92926    0.65938    0.79691    1.000
    Si5449   Si       0.77763    0.67576    0.88823    1.000
    N5450    N        0.76750    0.70251    0.97332    1.000
    Si5451   Si       0.76843    0.65904    0.96152    1.000
    N5452    N        0.79306    0.66017    0.92590    1.000
    N5453    N        0.85601    0.65023    0.96402    1.000
    N5454    N        0.96292    0.67604    0.96556    1.000
    N5455    N        0.91078    0.67004    0.90929    1.000
    Si5456   Si       0.86931    0.69395    0.97183    1.000
    N5457    N        0.98867    0.66295    0.90322    1.000
    Si5458   Si       0.91515    0.71304    0.91627    1.000
    Si5459   Si       0.98034    0.69539    0.92865    1.000
    Si5460   Si       0.93356    0.69994    0.98621    1.000
    Si5461   Si       0.88901    0.65505    0.87461    1.000
    Si5462   Si       0.84952    0.75179    0.02150    1.000
    N5463    N        0.80055    0.72755    0.09054    1.000
    Si5464   Si       0.80198    0.76982    0.08101    1.000
    N5465    N        0.94985    0.72769    0.01360    1.000
    Si5466   Si       0.90340    0.74372    0.08194    1.000
    N5467    N        0.88837    0.74010    0.04139    1.000
    Si5468   Si       0.92607    0.76033    0.02717    1.000
    N5469    N        0.98572    0.75743    0.11114    1.000
    Si5470   Si       0.97479    0.71607    0.10113    1.000
    N5471    N        0.83710    0.73174    0.14480    1.000
    Si5472   Si       0.74475    0.72222    0.16604    1.000
    N5473    N        0.83207    0.74653    0.21491    1.000
    Si5474   Si       0.81308    0.72991    0.18084    1.000
    N5475    N        0.77367    0.75110    0.18252    1.000
    N5476    N        0.90261    0.75022    0.17171    1.000
    Si5477   Si       0.96802    0.72151    0.21019    1.000
    N5478    N        0.96392    0.76410    0.20254    1.000
    Si5479   Si       0.86890    0.76246    0.14881    1.000
    N5480    N        0.81366    0.74515    0.33981    1.000
    N5481    N        0.79006    0.74479    0.27238    1.000
    Si5482   Si       0.85030    0.73293    0.32213    1.000
    Si5483   Si       0.82738    0.73053    0.25599    1.000
    N5484    N        0.74656    0.75266    0.32599    1.000
    Si5485   Si       0.75391    0.72346    0.28776    1.000
    N5486    N        0.85802    0.74988    0.28285    1.000
    N5487    N        0.87953    0.74504    0.35015    1.000
    N5488    N        0.92501    0.75927    0.29728    1.000
    Si5489   Si       0.91895    0.76244    0.34152    1.000
    Si5490   Si       0.95261    0.72979    0.28122    1.000
    N5491    N        0.94568    0.74356    0.36763    1.000
    N5492    N        0.82647    0.75822    0.40549    1.000
    N5493    N        0.77548    0.74278    0.45055    1.000
    Si5494   Si       0.80741    0.72658    0.38180    1.000
    N5495    N        0.76592    0.72076    0.38476    1.000
    Si5496   Si       0.80832    0.76964    0.44253    1.000
    N5497    N        0.91025    0.75660    0.47792    1.000
    Si5498   Si       0.97641    0.77169    0.38124    1.000
    Si5499   Si       0.88168    0.76220    0.44452    1.000
    N5500    N        0.88817    0.71925    0.43471    1.000
    N5501    N        0.76331    0.72273    0.51867    1.000
    N5502    N        0.74389    0.75852    0.60311    1.000
    Si5503   Si       0.77187    0.72770    0.62002    1.000
    N5504    N        0.87071    0.73903    0.60970    1.000
    N5505    N        0.88571    0.74842    0.54343    1.000
    N5506    N        0.93837    0.73504    0.60402    1.000
    Si5507   Si       0.87975    0.77322    0.58097    1.000
    Si5508   Si       0.91238    0.77167    0.51809    1.000
    N5509    N        0.80731    0.75349    0.62265    1.000
    Si5510   Si       0.78647    0.71669    0.68634    1.000
    N5511    N        0.79053    0.75858    0.70263    1.000
    Si5512   Si       0.84094    0.74033    0.64354    1.000
    N5513    N        0.85602    0.76604    0.67465    1.000
    Si5514   Si       0.83273    0.76717    0.71185    1.000
    N5515    N        0.85026    0.73941    0.73941    1.000
    N5516    N        0.75352    0.71785    0.65783    1.000
    Si5517   Si       0.76661    0.77375    0.73708    1.000
    N5518    N        0.90425    0.71751    0.66397    1.000
    Si5519   Si       0.92851    0.73321    0.74521    1.000
    N5520    N        0.97357    0.75627    0.65739    1.000
    Si5521   Si       0.94762    0.77356    0.62342    1.000
    Si5522   Si       0.89864    0.76048    0.67959    1.000
    N5523    N        0.92815    0.76167    0.71200    1.000
    N5524    N        0.78047    0.73627    0.82287    1.000
    N5525    N        0.75195    0.73745    0.75846    1.000
    Si5526   Si       0.75551    0.75976    0.79660    1.000
    Si5527   Si       0.78965    0.74622    0.86440    1.000
    N5528    N        0.84681    0.71964    0.80815    1.000
    Si5529   Si       0.86344    0.74738    0.78035    1.000
    N5530    N        0.83002    0.73497    0.86967    1.000
    Si5531   Si       0.86804    0.72449    0.85127    1.000
    N5532    N        0.90810    0.75211    0.77711    1.000
    N5533    N        0.95396    0.72858    0.82863    1.000
    N5534    N        0.89221    0.75941    0.83852    1.000
    Si5535   Si       0.92993    0.76124    0.81580    1.000
    N5536    N        0.96960    0.72719    0.75974    1.000
    Si5537   Si       0.97391    0.73763    0.86735    1.000
    Si5538   Si       0.98507    0.71956    0.79968    1.000
    N5539    N        0.76708    0.71745    0.88901    1.000
    Si5540   Si       0.84211    0.73884    0.91220    1.000
    N5541    N        0.79867    0.76141    0.99042    1.000
    Si5542   Si       0.80795    0.72023    0.97967    1.000
    N5543    N        0.86056    0.76902    0.98229    1.000
    N5544    N        0.83567    0.71298    0.94733    1.000
    N5545    N        0.90588    0.72235    0.95813    1.000
    N5546    N        0.95624    0.72203    0.90370    1.000
    Si5547   Si       0.89798    0.76623    0.96162    1.000
    N5548    N        0.88322    0.73338    0.89870    1.000
    N5549    N        0.81852    0.79767    0.11150    1.000
    Si5550   Si       0.85700    0.80019    0.08519    1.000
    N5551    N        0.76958    0.78165    0.05524    1.000
    Si5552   Si       0.76460    0.77717    0.01157    1.000
    N5553    N        0.83849    0.77827    0.05342    1.000
    N5554    N        0.93368    0.77565    0.06831    1.000
    Si5555   Si       0.92557    0.81993    0.07157    1.000
    N5556    N        0.96328    0.82638    0.09296    1.000
    Si5557   Si       0.97738    0.78636    0.08135    1.000
    N5558    N        0.88187    0.77170    0.10798    1.000
    N5559    N        0.85422    0.79710    0.17224    1.000
    N5560    N        0.75742    0.79978    0.23587    1.000
    N5561    N        0.78466    0.82452    0.17229    1.000
    Si5562   Si       0.76074    0.79187    0.19144    1.000
    Si5563   Si       0.85083    0.78541    0.21607    1.000
    Si5564   Si       0.81999    0.81796    0.14885    1.000
    N5565    N        0.82395    0.80757    0.24078    1.000
    N5566    N        0.91775    0.81817    0.18137    1.000
    N5567    N        0.97428    0.82434    0.22719    1.000
    N5568    N        0.89068    0.78196    0.23235    1.000
    Si5569   Si       0.92216    0.77810    0.20108    1.000
    N5570    N        0.79115    0.80486    0.30085    1.000
    N5571    N        0.84622    0.80324    0.35180    1.000
    Si5572   Si       0.79110    0.78755    0.26200    1.000
    Si5573   Si       0.78247    0.77597    0.33453    1.000
    Si5574   Si       0.87907    0.82106    0.33154    1.000
    N5575    N        0.91681    0.80546    0.35002    1.000
    N5576    N        0.88976    0.81963    0.28941    1.000
    Si5577   Si       0.95540    0.82180    0.33296    1.000
    Si5578   Si       0.89333    0.77766    0.27491    1.000
    N5579    N        0.98349    0.78895    0.34091    1.000
    N5580    N        0.78107    0.80144    0.37017    1.000
    Si5581   Si       0.76217    0.81656    0.40623    1.000
    N5582    N        0.78998    0.81131    0.44151    1.000
    Si5583   Si       0.77441    0.81895    0.48435    1.000
    Si5584   Si       0.84664    0.80870    0.49200    1.000
    N5585    N        0.84531    0.77678    0.46403    1.000
    Si5586   Si       0.85763    0.77032    0.37820    1.000
    N5587    N        0.95564    0.79848    0.40648    1.000
    Si5588   Si       0.91716    0.81361    0.39309    1.000
    N5589    N        0.88687    0.78626    0.40920    1.000
    Si5590   Si       0.97813    0.81181    0.43973    1.000
    N5591    N        0.85018    0.80333    0.59344    1.000
    N5592    N        0.80740    0.80457    0.51020    1.000
    N5593    N        0.78459    0.80760    0.58599    1.000
    Si5594   Si       0.81390    0.79558    0.61605    1.000
    Si5595   Si       0.74568    0.80286    0.60574    1.000
    Si5596   Si       0.79696    0.82447    0.54832    1.000
    N5597    N        0.88380    0.80662    0.51423    1.000
    N5598    N        0.97406    0.79258    0.59332    1.000
    N5599    N        0.91099    0.80044    0.57153    1.000
    Si5600   Si       0.95314    0.81055    0.55777    1.000
    N5601    N        0.95493    0.77893    0.52682    1.000
    N5602    N        0.80131    0.81567    0.65232    1.000
    Si5603   Si       0.77193    0.79692    0.67581    1.000
    N5604    N        0.75498    0.80991    0.71413    1.000
    N5605    N        0.83503    0.80779    0.73017    1.000
    Si5606   Si       0.96515    0.77719    0.69401    1.000
    Si5607   Si       0.92327    0.82795    0.66929    1.000
    N5608    N        0.91767    0.78939    0.65118    1.000
    N5609    N        0.95631    0.82067    0.69655    1.000
    N5610    N        0.77850    0.79031    0.77552    1.000
    Si5611   Si       0.81789    0.81027    0.77302    1.000
    N5612    N        0.84475    0.78391    0.79239    1.000
    Si5613   Si       0.74541    0.80120    0.86374    1.000
    N5614    N        0.85290    0.81278    0.86601    1.000
    N5615    N        0.78651    0.78827    0.86909    1.000
    Si5616   Si       0.86621    0.79222    0.82920    1.000
    N5617    N        0.95170    0.79903    0.81557    1.000
    Si5618   Si       0.81822    0.80708    0.89161    1.000
    Si5619   Si       0.82401    0.78566    0.96499    1.000
    N5620    N        0.82459    0.77675    0.92392    1.000
    N5621    N        0.81749    0.82867    0.96871    1.000
    N5622    N        0.75156    0.81392    0.99184    1.000
    N5623    N        0.89937    0.79640    0.93035    1.000
    N5624    N        0.92140    0.78414    0.99282    1.000
    Si5625   Si       0.91680    0.82716    0.99400    1.000
    N5626    N        0.77861    0.86693    0.01550    1.000
    N5627    N        0.84094    0.88214    0.04507    1.000
    Si5628   Si       0.74165    0.87179    0.03630    1.000
    Si5629   Si       0.87895    0.86205    0.03943    1.000
    Si5630   Si       0.97072    0.86072    0.02151    1.000
    Si5631   Si       0.97823    0.86687    0.09821    1.000
    N5632    N        0.93623    0.83844    0.03188    1.000
    N5633    N        0.87795    0.84444    0.99922    1.000
    N5634    N        0.93983    0.88619    0.10817    1.000
    N5635    N        0.88315    0.83193    0.07146    1.000
    N5636    N        0.98974    0.87788    0.05786    1.000
    Si5637   Si       0.82770    0.85062    0.24209    1.000
    N5638    N        0.79166    0.87330    0.22662    1.000
    N5639    N        0.84965    0.85133    0.14421    1.000
    Si5640   Si       0.77561    0.86621    0.18616    1.000
    N5641    N        0.85875    0.85597    0.21262    1.000
    Si5642   Si       0.86652    0.89016    0.14209    1.000
    N5643    N        0.90041    0.88245    0.17004    1.000
    N5644    N        0.91920    0.86602    0.23348    1.000
    Si5645   Si       0.94440    0.84665    0.20415    1.000
    N5646    N        0.96616    0.87005    0.17458    1.000
    Si5647   Si       0.88828    0.88796    0.21252    1.000
    Si5648   Si       0.87842    0.83512    0.17714    1.000
    N5649    N        0.83179    0.86167    0.28384    1.000
    N5650    N        0.79663    0.86070    0.34238    1.000
    Si5651   Si       0.79304    0.84853    0.30107    1.000
    N5652    N        0.75653    0.85824    0.27777    1.000
    Si5653   Si       0.86237    0.88356    0.31001    1.000
    Si5654   Si       0.77403    0.88561    0.36910    1.000
    Si5655   Si       0.81418    0.82909    0.36591    1.000
    N5656    N        0.86729    0.86115    0.34561    1.000
    Si5657   Si       0.91370    0.85188    0.27540    1.000
    N5658    N        0.97015    0.85538    0.35583    1.000
    N5659    N        0.95356    0.83726    0.29154    1.000
    Si5660   Si       0.98777    0.84160    0.26492    1.000
    N5661    N        0.83012    0.85098    0.40395    1.000
    N5662    N        0.76114    0.86074    0.40202    1.000
    N5663    N        0.84359    0.84819    0.47388    1.000
    Si5664   Si       0.81134    0.85460    0.44523    1.000
    N5665    N        0.77243    0.86108    0.46964    1.000
    Si5666   Si       0.74270    0.87616    0.43875    1.000
    Si5667   Si       0.86696    0.86888    0.38833    1.000
    N5668    N        0.95499    0.84265    0.45926    1.000
    Si5669   Si       0.92897    0.87226    0.43679    1.000
    N5670    N        0.90587    0.85232    0.40519    1.000
    Si5671   Si       0.85191    0.84970    0.58830    1.000
    Si5672   Si       0.76279    0.88209    0.50872    1.000
    N5673    N        0.82116    0.85607    0.56043    1.000
    N5674    N        0.75967    0.84215    0.52943    1.000
    N5675    N        0.88578    0.86420    0.56575    1.000
    N5676    N        0.97743    0.86493    0.59486    1.000
    N5677    N        0.94142    0.84341    0.53240    1.000
    Si5678   Si       0.96760    0.85153    0.49982    1.000
    Si5679   Si       0.90007    0.83417    0.54185    1.000
    Si5680   Si       0.94935    0.88322    0.62238    1.000
    N5681    N        0.85006    0.86196    0.63016    1.000
    Si5682   Si       0.81171    0.85872    0.65053    1.000
    Si5683   Si       0.84799    0.84551    0.71405    1.000
    N5684    N        0.81808    0.86892    0.69235    1.000
    N5685    N        0.94305    0.88051    0.71970    1.000
    Si5686   Si       0.90589    0.86130    0.72869    1.000
    N5687    N        0.92198    0.85504    0.63708    1.000
    N5688    N        0.88715    0.84302    0.69071    1.000
    Si5689   Si       0.88409    0.87314    0.65592    1.000
    Si5690   Si       0.96460    0.84355    0.73511    1.000
    N5691    N        0.86494    0.87530    0.74253    1.000
    N5692    N        0.81569    0.85166    0.78050    1.000
    N5693    N        0.74895    0.87263    0.75390    1.000
    Si5694   Si       0.83530    0.88902    0.77132    1.000
    N5695    N        0.86021    0.88165    0.86728    1.000
    N5696    N        0.93860    0.86993    0.82475    1.000
    Si5697   Si       0.88320    0.84589    0.85859    1.000
    N5698    N        0.97944    0.86608    0.77541    1.000
    Si5699   Si       0.95186    0.86715    0.86650    1.000
    N5700    N        0.92594    0.83366    0.75604    1.000
    N5701    N        0.98542    0.83995    0.86665    1.000
    N5702    N        0.88927    0.82854    0.81828    1.000
    Si5703   Si       0.92815    0.83419    0.80088    1.000
    Si5704   Si       0.84980    0.85870    0.96885    1.000
    N5705    N        0.75537    0.86736    0.94868    1.000
    Si5706   Si       0.76115    0.85360    0.90819    1.000
    N5707    N        0.80278    0.84378    0.90234    1.000
    Si5708   Si       0.77779    0.84401    0.97975    1.000
    N5709    N        0.75112    0.88692    0.87928    1.000
    Si5710   Si       0.90732    0.83874    0.92649    1.000
    N5711    N        0.91819    0.84739    0.88533    1.000
    N5712    N        0.93750    0.84329    0.95849    1.000
    N5713    N        0.87573    0.86696    0.93279    1.000
    Si5714   Si       0.98043    0.83154    0.95583    1.000
    N5715    N        0.79314    0.93438    0.02488    1.000
    N5716    N        0.80487    0.92090    0.09272    1.000
    Si5717   Si       0.84420    0.91330    0.07580    1.000
    Si5718   Si       0.77579    0.93546    0.06437    1.000
    Si5719   Si       0.81067    0.89576    0.01852    1.000
    N5720    N        0.86156    0.94577    0.05075    1.000
    Si5721   Si       0.91291    0.91049    0.08446    1.000
    Si5722   Si       0.89364    0.93212    0.01981    1.000
    N5723    N        0.87430    0.90341    0.10294    1.000
    N5724    N        0.90526    0.89867    0.04356    1.000
    N5725    N        0.97842    0.89753    0.99928    1.000
    N5726    N        0.77558    0.89930    0.15886    1.000
    Si5727   Si       0.79955    0.92485    0.13565    1.000
    N5728    N        0.83920    0.92273    0.15412    1.000
    Si5729   Si       0.85954    0.94909    0.17944    1.000
    Si5730   Si       0.98575    0.92223    0.24510    1.000
    N5731    N        0.94866    0.93630    0.15272    1.000
    Si5732   Si       0.93906    0.89365    0.15225    1.000
    N5733    N        0.86941    0.92779    0.21679    1.000
    N5734    N        0.78523    0.91485    0.28453    1.000
    N5735    N        0.84548    0.92139    0.32532    1.000
    Si5736   Si       0.75870    0.92784    0.31657    1.000
    Si5737   Si       0.81720    0.94310    0.30225    1.000
    N5738    N        0.74198    0.90371    0.34710    1.000
    Si5739   Si       0.84014    0.92856    0.36693    1.000
    Si5740   Si       0.76524    0.89322    0.25445    1.000
    Si5741   Si       0.92889    0.92508    0.29467    1.000
    N5742    N        0.96590    0.91824    0.32257    1.000
    N5743    N        0.94749    0.93869    0.25710    1.000
    N5744    N        0.89896    0.89134    0.29099    1.000
    N5745    N        0.75136    0.91763    0.43653    1.000
    Si5746   Si       0.79407    0.92526    0.42636    1.000
    N5747    N        0.80168    0.91602    0.38438    1.000
    N5748    N        0.82255    0.90134    0.44820    1.000
    Si5749   Si       0.81429    0.94312    0.48912    1.000
    Si5750   Si       0.85746    0.89123    0.47318    1.000
    N5751    N        0.89565    0.89245    0.45414    1.000
    Si5752   Si       0.97432    0.93335    0.40364    1.000
    N5753    N        0.94229    0.90960    0.41909    1.000
    N5754    N        0.87204    0.91113    0.39170    1.000
    Si5755   Si       0.90178    0.92170    0.42274    1.000
    N5756    N        0.78838    0.91665    0.51520    1.000
    N5757    N        0.74513    0.90252    0.58999    1.000
    Si5758   Si       0.77095    0.92566    0.61562    1.000
    N5759    N        0.80117    0.94470    0.58770    1.000
    Si5760   Si       0.78661    0.94684    0.54853    1.000
    N5761    N        0.85628    0.92893    0.49609    1.000
    N5762    N        0.86768    0.93452    0.56537    1.000
    Si5763   Si       0.89832    0.90345    0.56642    1.000
    N5764    N        0.91636    0.91705    0.53012    1.000
    N5765    N        0.92070    0.91263    0.60402    1.000
    Si5766   Si       0.95475    0.93241    0.51088    1.000
    N5767    N        0.97758    0.89504    0.50157    1.000
    Si5768   Si       0.88339    0.94712    0.52554    1.000
    Si5769   Si       0.74121    0.94534    0.68499    1.000
    Si5770   Si       0.80372    0.90816    0.68360    1.000
    N5771    N        0.76697    0.91664    0.70370    1.000
    N5772    N        0.83038    0.94077    0.69844    1.000
    N5773    N        0.79328    0.89741    0.64074    1.000
    Si5774   Si       0.90042    0.93696    0.63520    1.000
    N5775    N        0.97010    0.90422    0.65482    1.000
    Si5776   Si       0.94388    0.90991    0.68837    1.000
    N5777    N        0.94757    0.94857    0.70876    1.000
    N5778    N        0.90423    0.90937    0.66792    1.000
    Si5779   Si       0.83906    0.90945    0.84042    1.000
    N5780    N        0.79643    0.91288    0.83649    1.000
    N5781    N        0.80690    0.91930    0.75787    1.000
    N5782    N        0.85826    0.90797    0.80272    1.000
    Si5783   Si       0.76462    0.92506    0.86416    1.000
    Si5784   Si       0.76376    0.91244    0.74680    1.000
    Si5785   Si       0.88952    0.93282    0.79050    1.000
    N5786    N        0.93040    0.92297    0.77761    1.000
    Si5787   Si       0.95975    0.89789    0.79901    1.000
    Si5788   Si       0.95171    0.94959    0.75203    1.000
    Si5789   Si       0.83986    0.93304    0.96246    1.000
    N5790    N        0.83892    0.92478    0.92128    1.000
    N5791    N        0.74694    0.93039    0.97818    1.000
    N5792    N        0.82770    0.89371    0.97811    1.000
    N5793    N        0.87832    0.93204    0.98124    1.000
    Si5794   Si       0.86921    0.89948    0.90420    1.000
    N5795    N        0.90612    0.92309    0.88914    1.000
    N5796    N        0.95970    0.93287    0.94559    1.000
    Si5797   Si       0.94763    0.93177    0.90475    1.000
    N5798    N        0.97200    0.90174    0.88512    1.000
    N5799    N        0.77024    0.97951    0.06920    1.000
    Si5800   Si       0.85169    0.98699    0.06304    1.000
    N5801    N        0.82988    0.99489    0.09963    1.000
    Si5802   Si       0.78741    0.99283    0.10967    1.000
    N5803    N        0.76305    0.99800    0.00112    1.000
    Si5804   Si       0.92745    0.97795    0.05716    1.000
    N5805    N        0.92934    0.95676    0.01739    1.000
    N5806    N        0.92336    0.95366    0.09175    1.000
    N5807    N        0.96126    0.00574    0.05003    1.000
    N5808    N        0.78997    0.96654    0.14524    1.000
    N5809    N        0.76455    0.97638    0.21564    1.000
    N5810    N        0.83756    0.98124    0.20194    1.000
    Si5811   Si       0.79531    0.98094    0.18582    1.000
    Si5812   Si       0.86319    0.96473    0.23790    1.000
    N5813    N        0.90143    0.98383    0.24033    1.000
    N5814    N        0.89574    0.97064    0.16955    1.000
    Si5815   Si       0.92094    0.96685    0.13593    1.000
    N5816    N        0.92801    0.00983    0.13183    1.000
    N5817    N        0.95743    0.98989    0.19913    1.000
    Si5818   Si       0.91504    0.99410    0.19977    1.000
    Si5819   Si       0.97786    0.95838    0.17531    1.000
    Si5820   Si       0.80670    0.99055    0.35556    1.000
    N5821    N        0.78839    0.96154    0.32875    1.000
    N5822    N        0.83802    0.96495    0.27113    1.000
    N5823    N        0.92813    0.96721    0.31023    1.000
    Si5824   Si       0.96280    0.95922    0.33414    1.000
    Si5825   Si       0.93287    0.98668    0.27171    1.000
    N5826    N        0.97979    0.00039    0.26326    1.000
    N5827    N        0.83859    0.97127    0.37536    1.000
    N5828    N        0.80096    0.96066    0.45276    1.000
    Si5829   Si       0.80252    0.00057    0.43248    1.000
    N5830    N        0.78027    0.99752    0.39338    1.000
    N5831    N        0.94310    0.95766    0.47976    1.000
    N5832    N        0.90007    0.96510    0.42441    1.000
    N5833    N        0.95511    0.96222    0.37603    1.000
    Si5834   Si       0.92577    0.98469    0.45245    1.000
    Si5835   Si       0.93997    0.00210    0.38395    1.000
    Si5836   Si       0.86917    0.98663    0.40195    1.000
    N5837    N        0.81246    0.97241    0.52213    1.000
    Si5838   Si       0.84286    0.95893    0.59286    1.000
    N5839    N        0.84237    0.99929    0.58098    1.000
    N5840    N        0.74450    0.95709    0.54909    1.000
    Si5841   Si       0.83066    0.00551    0.53885    1.000
    Si5842   Si       0.94797    0.99111    0.54500    1.000
    N5843    N        0.90504    0.98403    0.53194    1.000
    N5844    N        0.97491    0.95686    0.54105    1.000
    N5845    N        0.95250    0.00284    0.58550    1.000
    Si5846   Si       0.96133    0.98451    0.62405    1.000
    Si5847   Si       0.84996    0.97069    0.67379    1.000
    N5848    N        0.82294    0.00318    0.67931    1.000
    N5849    N        0.86086    0.95813    0.63444    1.000
    N5850    N        0.81079    0.99199    0.74433    1.000
    N5851    N        0.74897    0.95509    0.64063    1.000
    Si5852   Si       0.82809    0.95258    0.74171    1.000
    N5853    N        0.73856    0.97866    0.71206    1.000
    N5854    N        0.92896    0.96881    0.64652    1.000
    Si5855   Si       0.92646    0.97890    0.68831    1.000
    Si5856   Si       0.88804    0.99373    0.74120    1.000
    N5857    N        0.88389    0.98064    0.70054    1.000
    N5858    N        0.74973    0.00759    0.77970    1.000
    N5859    N        0.84729    0.94799    0.86136    1.000
    N5860    N        0.86764    0.95777    0.75912    1.000
    N5861    N        0.96284    0.97872    0.81896    1.000
    Si5862   Si       0.92555    0.99298    0.80470    1.000
    N5863    N        0.92956    0.98801    0.76020    1.000
    N5864    N        0.89743    0.96321    0.81984    1.000
    Si5865   Si       0.98146    0.98196    0.85677    1.000
    Si5866   Si       0.88943    0.95535    0.86267    1.000
    Si5867   Si       0.82446    0.95757    0.89709    1.000
    N5868    N        0.81344    0.96645    0.96880    1.000
    N5869    N        0.83505    0.99706    0.90990    1.000
    Si5870   Si       0.76209    0.99795    0.89629    1.000
    N5871    N        0.78038    0.95615    0.89301    1.000
    Si5872   Si       0.81469    0.00453    0.94891    1.000
    Si5873   Si       0.77672    0.95760    0.99150    1.000
    Si5874   Si       0.92923    0.00164    0.91021    1.000
    N5875    N        0.98660    0.98919    0.98664    1.000
    N5876    N        0.95368    0.97068    0.88959    1.000
    N5877    N        0.89521    0.99460    0.88316    1.000
    N5878    N        0.92632    0.99308    0.95244    1.000
    Si5879   Si       0.94988    0.96447    0.97701    1.000
