# CIF file generated by openbabel 3.1.1, see https://openbabel.org
data_I
_chemical_name_common '3.01-30.aims'
_cell_length_a 39.9384
_cell_length_b 39.9384
_cell_length_c 39.9384
_cell_angle_alpha 90
_cell_angle_beta 90
_cell_angle_gamma 90
loop_
    _atom_site_label
    _atom_site_type_symbol
    _atom_site_fract_x
    _atom_site_fract_y
    _atom_site_fract_z
    _atom_site_occupancy
    Si0      Si       0.02145    0.07349    0.02146    1.000
    Si1      Si       0.01293    0.09597    0.08230    1.000
    N2       N        0.99877    0.10446    0.03996    1.000
    N3       N        0.99584    0.05823    0.09504    1.000
    N4       N        0.04761    0.12306    0.09049    1.000
    N5       N        0.99241    0.03941    0.02729    1.000
    N6       N        0.05079    0.07018    0.05326    1.000
    Si7      Si       0.01847    0.21815    0.10929    1.000
    Si8      Si       0.02280    0.15193    0.11389    1.000
    N9       N        0.99859    0.23106    0.07073    1.000
    N10      N        0.05171    0.18850    0.10350    1.000
    N11      N        0.03564    0.06421    0.15386    1.000
    Si12     Si       0.99953    0.04959    0.14014    1.000
    N13      N        0.01503    0.14523    0.22378    1.000
    Si14     Si       0.00352    0.16729    0.17012    1.000
    N15      N        0.04143    0.14982    0.15536    1.000
    Si16     Si       0.04457    0.23801    0.17393    1.000
    N17      N        0.02514    0.25035    0.13590    1.000
    Si18     Si       0.03208    0.18498    0.23202    1.000
    N19      N        0.01785    0.20396    0.19148    1.000
    Si20     Si       0.03808    0.08873    0.33709    1.000
    N21      N        0.99721    0.08011    0.34311    1.000
    Si22     Si       0.02949    0.12688    0.26391    1.000
    Si23     Si       0.03601    0.01257    0.30750    1.000
    N24      N        0.04073    0.12629    0.31664    1.000
    N25      N        0.00243    0.00945    0.33538    1.000
    N26      N        0.99623    0.20730    0.25089    1.000
    N27      N        0.00248    0.18979    0.32019    1.000
    Si28     Si       0.04091    0.16889    0.31782    1.000
    Si29     Si       0.01853    0.06932    0.47148    1.000
    N30      N        0.01468    0.03399    0.44521    1.000
    N31      N        0.00769    0.12438    0.39959    1.000
    Si32     Si       0.04529    0.11986    0.42220    1.000
    Si33     Si       0.02655    0.19113    0.46728    1.000
    N34      N        0.03408    0.15449    0.44769    1.000
    N35      N        0.00366    0.19035    0.39196    1.000
    Si36     Si       0.02665    0.22548    0.40831    1.000
    N37      N        0.99860    0.25501    0.41946    1.000
    Si38     Si       0.99295    0.15847    0.42514    1.000
    N39      N        0.98436    0.19353    0.45226    1.000
    N40      N        0.02192    0.09139    0.57451    1.000
    N41      N        0.03064    0.02544    0.57526    1.000
    Si42     Si       0.03672    0.05821    0.60186    1.000
    Si43     Si       0.03592    0.12293    0.54716    1.000
    N44      N        0.00796    0.12111    0.51523    1.000
    N45      N        0.03977    0.05424    0.50938    1.000
    Si46     Si       0.04964    0.02112    0.53725    1.000
    N47      N        0.01479    0.23079    0.56727    1.000
    N48      N        0.02862    0.16159    0.56610    1.000
    Si49     Si       0.01412    0.19446    0.54393    1.000
    N50      N        0.04106    0.19351    0.50860    1.000
    N51      N        0.01447    0.05283    0.63663    1.000
    Si52     Si       0.03466    0.03691    0.67077    1.000
    N53      N        0.03054    0.06818    0.70140    1.000
    Si54     Si       0.02434    0.05288    0.74100    1.000
    Si55     Si       0.04057    0.15022    0.67039    1.000
    N56      N        0.01931    0.16607    0.63516    1.000
    N57      N        0.01557    0.14378    0.70503    1.000
    N58      N        0.01593    0.22963    0.70965    1.000
    Si59     Si       0.03150    0.13753    0.74529    1.000
    N60      N        0.01709    0.06510    0.78222    1.000
    N61      N        0.00645    0.04667    0.85478    1.000
    Si62     Si       0.03230    0.11364    0.84946    1.000
    Si63     Si       0.03339    0.04931    0.81809    1.000
    N64      N        0.99562    0.11204    0.83025    1.000
    N65      N        0.99545    0.13311    0.76933    1.000
    N66      N        0.00131    0.21005    0.84471    1.000
    Si67     Si       0.00555    0.22763    0.80410    1.000
    Si68     Si       0.01975    0.18067    0.87019    1.000
    N69      N        0.04537    0.17677    0.75613    1.000
    N70      N        0.04708    0.15455    0.85101    1.000
    N71      N        0.03238    0.04216    0.92001    1.000
    N72      N        0.03415    0.10078    0.89069    1.000
    N73      N        0.04076    0.08330    0.98594    1.000
    Si74     Si       0.04087    0.05648    0.87980    1.000
    Si75     Si       0.03154    0.18176    0.94656    1.000
    N76      N        0.04041    0.21545    0.97168    1.000
    Si77     Si       0.00840    0.24344    0.98518    1.000
    N78      N        0.03991    0.19350    0.90620    1.000
    N79      N        0.03265    0.28971    0.08185    1.000
    Si80     Si       0.00796    0.27053    0.05309    1.000
    N81      N        0.03007    0.26584    0.01648    1.000
    Si82     Si       0.01453    0.28896    0.12209    1.000
    Si83     Si       0.98919    0.43473    0.02186    1.000
    Si84     Si       0.03138    0.41411    0.08656    1.000
    N85      N        0.02458    0.42129    0.04456    1.000
    Si86     Si       0.01348    0.50081    0.02674    1.000
    N87      N        0.99388    0.41535    0.10595    1.000
    N88      N        0.00024    0.49830    0.06973    1.000
    N89      N        0.99089    0.47357    0.00146    1.000
    Si90     Si       0.00750    0.28992    0.21929    1.000
    N91      N        0.02901    0.32823    0.13959    1.000
    Si92     Si       0.00294    0.35076    0.16674    1.000
    N93      N        0.99386    0.32963    0.20464    1.000
    N94      N        0.04150    0.26932    0.20308    1.000
    Si95     Si       0.99737    0.42475    0.14881    1.000
    N96      N        0.01990    0.39354    0.17089    1.000
    Si97     Si       0.02413    0.49214    0.19474    1.000
    Si98     Si       0.04772    0.42354    0.18466    1.000
    N99      N        0.02261    0.45842    0.16346    1.000
    N100     N        0.01282    0.28747    0.26229    1.000
    Si101    Si       0.00495    0.33212    0.33765    1.000
    N102     N        0.99682    0.37155    0.35276    1.000
    N103     N        0.04035    0.33643    0.30970    1.000
    N104     N        0.01803    0.30186    0.36925    1.000
    Si105    Si       0.04658    0.29891    0.28802    1.000
    N106     N        0.03096    0.40310    0.30399    1.000
    Si107    Si       0.02817    0.42590    0.26819    1.000
    Si108    Si       0.04097    0.49047    0.30666    1.000
    N109     N        0.00141    0.50090    0.29257    1.000
    N110     N        0.04312    0.48724    0.35150    1.000
    Si111    Si       0.99113    0.40178    0.32188    1.000
    Si112    Si       0.00263    0.29729    0.41019    1.000
    N113     N        0.00362    0.31285    0.48406    1.000
    N114     N        0.03968    0.31497    0.42783    1.000
    Si115    Si       0.04413    0.31832    0.47195    1.000
    N116     N        0.00900    0.38504    0.42745    1.000
    N117     N        0.01193    0.42030    0.47799    1.000
    N118     N        0.04427    0.47892    0.42200    1.000
    Si119    Si       0.01945    0.38645    0.38646    1.000
    N120     N        0.99137    0.49987    0.46685    1.000
    N121     N        0.01296    0.42897    0.38023    1.000
    Si122    Si       0.04204    0.39590    0.45587    1.000
    Si123    Si       0.02455    0.31106    0.57284    1.000
    N124     N        0.00446    0.32783    0.60831    1.000
    N125     N        0.03937    0.34858    0.55361    1.000
    N126     N        0.99687    0.29166    0.54637    1.000
    Si127    Si       0.02397    0.38324    0.57402    1.000
    N128     N        0.02808    0.45594    0.59386    1.000
    N129     N        0.01239    0.46909    0.52831    1.000
    Si130    Si       0.00304    0.42861    0.51832    1.000
    N131     N        0.03661    0.41048    0.54263    1.000
    Si132    Si       0.00195    0.50520    0.50879    1.000
    Si133    Si       0.04413    0.45122    0.55426    1.000
    Si134    Si       0.99053    0.47653    0.60389    1.000
    Si135    Si       0.01811    0.27795    0.71278    1.000
    N136     N        0.00005    0.27702    0.67302    1.000
    Si137    Si       0.98833    0.29724    0.63546    1.000
    Si138    Si       0.03054    0.38427    0.65143    1.000
    N139     N        0.98875    0.27771    0.74627    1.000
    N140     N        0.03095    0.43478    0.74609    1.000
    N141     N        0.00205    0.47151    0.64903    1.000
    N142     N        0.04317    0.42099    0.66988    1.000
    Si143    Si       0.03973    0.45153    0.63612    1.000
    Si144    Si       0.00199    0.28147    0.85147    1.000
    Si145    Si       0.99856    0.29831    0.78397    1.000
    N146     N        0.03845    0.30164    0.79157    1.000
    N147     N        0.02774    0.36380    0.76093    1.000
    N148     N        0.04389    0.27530    0.85122    1.000
    N149     N        0.98959    0.32203    0.84472    1.000
    N150     N        0.04816    0.36728    0.87025    1.000
    Si151    Si       0.00802    0.45373    0.85421    1.000
    N152     N        0.02681    0.46753    0.81492    1.000
    Si153    Si       0.00413    0.50528    0.80983    1.000
    N154     N        0.99507    0.34413    0.95656    1.000
    Si155    Si       0.01254    0.34446    0.87442    1.000
    Si156    Si       0.99969    0.36668    0.99324    1.000
    Si157    Si       0.01835    0.30802    0.94631    1.000
    N158     N        0.02456    0.31099    0.90244    1.000
    N159     N        0.99572    0.27145    0.95543    1.000
    N160     N        0.04287    0.37106    0.00121    1.000
    N161     N        0.99422    0.49105    0.87472    1.000
    N162     N        0.03078    0.47130    0.94870    1.000
    N163     N        0.03480    0.43423    0.88282    1.000
    N164     N        0.01640    0.57284    0.08170    1.000
    Si165    Si       0.02231    0.57363    0.00628    1.000
    N166     N        0.00471    0.60822    0.02690    1.000
    Si167    Si       0.02067    0.53217    0.09169    1.000
    N168     N        0.99788    0.53969    0.01699    1.000
    N169     N        0.03153    0.72801    0.05031    1.000
    Si170    Si       0.02219    0.65492    0.10609    1.000
    Si171    Si       0.04011    0.68796    0.03596    1.000
    N172     N        0.00987    0.68450    0.00446    1.000
    N173     N        0.99653    0.69290    0.09580    1.000
    Si174    Si       0.98886    0.64301    0.00604    1.000
    N175     N        0.99748    0.53199    0.13054    1.000
    N176     N        0.03197    0.53525    0.19166    1.000
    Si177    Si       0.02555    0.55555    0.15438    1.000
    N178     N        0.00725    0.59577    0.16019    1.000
    Si179    Si       0.04020    0.62124    0.17045    1.000
    Si180    Si       0.02905    0.62358    0.24445    1.000
    Si181    Si       0.00647    0.71049    0.13506    1.000
    N182     N        0.04296    0.73293    0.13823    1.000
    Si183    Si       0.01872    0.68321    0.19504    1.000
    N184     N        0.01712    0.67286    0.15186    1.000
    N185     N        0.02776    0.64323    0.20729    1.000
    N186     N        0.02635    0.58441    0.31487    1.000
    Si187    Si       0.02324    0.57225    0.35780    1.000
    Si188    Si       0.00058    0.58417    0.27992    1.000
    N189     N        0.99390    0.54043    0.35383    1.000
    N190     N        0.98839    0.62360    0.26229    1.000
    N191     N        0.03113    0.57888    0.24963    1.000
    N192     N        0.00858    0.74097    0.24947    1.000
    Si193    Si       0.03093    0.70951    0.31726    1.000
    N194     N        0.00694    0.67460    0.32908    1.000
    Si195    Si       0.02237    0.64912    0.35948    1.000
    N196     N        0.00519    0.74457    0.31699    1.000
    N197     N        0.00716    0.60951    0.37207    1.000
    Si198    Si       0.01907    0.51434    0.43531    1.000
    N199     N        0.03588    0.60685    0.49170    1.000
    N200     N        0.04458    0.66691    0.39547    1.000
    N201     N        0.04473    0.67457    0.47014    1.000
    N202     N        0.04305    0.72981    0.41112    1.000
    Si203    Si       0.00739    0.75430    0.40282    1.000
    Si204    Si       0.03193    0.69079    0.43019    1.000
    N205     N        0.01535    0.57522    0.55520    1.000
    Si206    Si       0.01581    0.57324    0.51035    1.000
    N207     N        0.03493    0.53364    0.50620    1.000
    Si208    Si       0.03759    0.59940    0.58369    1.000
    N209     N        0.04633    0.56902    0.61534    1.000
    N210     N        0.01727    0.63181    0.60142    1.000
    Si211    Si       0.02550    0.66702    0.57785    1.000
    Si212    Si       0.00069    0.72736    0.54683    1.000
    N213     N        0.04185    0.66068    0.53858    1.000
    Si214    Si       0.02476    0.64800    0.50028    1.000
    N215     N        0.99368    0.72944    0.50308    1.000
    N216     N        0.99296    0.69256    0.57215    1.000
    N217     N        0.04480    0.72682    0.54354    1.000
    N218     N        0.99666    0.60797    0.66162    1.000
    N219     N        0.00203    0.54497    0.66636    1.000
    Si220    Si       0.02721    0.57861    0.65202    1.000
    Si221    Si       0.00098    0.53749    0.70855    1.000
    N222     N        0.04121    0.53784    0.72126    1.000
    N223     N        0.01862    0.67587    0.66105    1.000
    N224     N        0.04026    0.73299    0.68775    1.000
    Si225    Si       0.99568    0.64422    0.63845    1.000
    N226     N        0.01288    0.68117    0.74001    1.000
    Si227    Si       0.01277    0.69876    0.69822    1.000
    Si228    Si       0.00344    0.75840    0.67276    1.000
    N229     N        0.01173    0.54244    0.83443    1.000
    N230     N        0.02051    0.58806    0.77141    1.000
    Si231    Si       0.03513    0.62269    0.79423    1.000
    N232     N        0.00504    0.52201    0.77057    1.000
    Si233    Si       0.03940    0.54857    0.76235    1.000
    Si234    Si       0.05033    0.56348    0.82830    1.000
    N235     N        0.99803    0.64465    0.79726    1.000
    N236     N        0.00329    0.67776    0.85667    1.000
    Si237    Si       0.04418    0.69523    0.84465    1.000
    N238     N        0.04418    0.70954    0.80266    1.000
    Si239    Si       0.04858    0.75109    0.79170    1.000
    Si240    Si       0.02778    0.52425    0.87828    1.000
    N241     N        0.03789    0.61686    0.90124    1.000
    N242     N        0.01746    0.58068    0.96459    1.000
    N243     N        0.00790    0.55368    0.90330    1.000
    Si244    Si       0.99950    0.59590    0.89307    1.000
    Si245    Si       0.04517    0.60886    0.94584    1.000
    N246     N        0.99935    0.64380    0.95727    1.000
    Si247    Si       0.02610    0.67880    0.95638    1.000
    N248     N        0.99527    0.70146    0.92955    1.000
    Si249    Si       0.04343    0.75156    0.96625    1.000
    N250     N        0.00139    0.75238    0.97984    1.000
    N251     N        0.04101    0.72530    0.87941    1.000
    Si252    Si       0.00153    0.70725    0.88716    1.000
    Si253    Si       0.02570    0.82639    0.01751    1.000
    N254     N        0.01797    0.79225    0.04227    1.000
    N255     N        0.01513    0.85822    0.04551    1.000
    Si256    Si       0.02517    0.85713    0.08709    1.000
    N257     N        0.99004    0.82878    0.10236    1.000
    N258     N        0.99427    0.76175    0.09665    1.000
    N259     N        0.01537    0.89339    0.10593    1.000
    Si260    Si       0.00375    0.89323    0.01946    1.000
    N261     N        0.00278    0.92738    0.04800    1.000
    N262     N        0.00575    0.99156    0.07203    1.000
    Si263    Si       0.02456    0.96291    0.04498    1.000
    N264     N        0.02006    0.98361    0.00589    1.000
    Si265    Si       0.00059    0.98062    0.11353    1.000
    N266     N        0.03741    0.95645    0.11936    1.000
    Si267    Si       0.02711    0.77203    0.12583    1.000
    Si268    Si       0.00935    0.82963    0.17845    1.000
    N269     N        0.00744    0.79113    0.15883    1.000
    N270     N        0.00116    0.83198    0.22125    1.000
    Si271    Si       0.03130    0.85790    0.24450    1.000
    N272     N        0.99724    0.00710    0.14760    1.000
    Si273    Si       0.01797    0.92801    0.20930    1.000
    N274     N        0.04448    0.89409    0.22156    1.000
    N275     N        0.00267    0.91575    0.17042    1.000
    Si276    Si       0.03203    0.91743    0.13728    1.000
    N277     N        0.02148    0.97255    0.21041    1.000
    Si278    Si       0.04893    0.99839    0.23351    1.000
    Si279    Si       0.98804    0.99063    0.18720    1.000
    N280     N        0.02264    0.86992    0.28601    1.000
    Si281    Si       0.03933    0.77156    0.33858    1.000
    Si282    Si       0.00613    0.76953    0.28279    1.000
    N283     N        0.04136    0.78875    0.29734    1.000
    N284     N        0.01121    0.78377    0.37194    1.000
    Si285    Si       0.98880    0.82091    0.37052    1.000
    N286     N        0.02019    0.94473    0.29942    1.000
    Si287    Si       0.01098    0.92846    0.33899    1.000
    N288     N        0.04395    0.90205    0.34551    1.000
    N289     N        0.02099    0.00161    0.26788    1.000
    Si290    Si       0.99526    0.96089    0.26742    1.000
    N291     N        0.98898    0.77349    0.43828    1.000
    N292     N        0.00740    0.85240    0.39282    1.000
    Si293    Si       0.00081    0.83448    0.48047    1.000
    N294     N        0.03615    0.83268    0.45417    1.000
    Si295    Si       0.99776    0.76560    0.48115    1.000
    Si296    Si       0.04050    0.86019    0.42022    1.000
    N297     N        0.04027    0.76879    0.48262    1.000
    N298     N        0.02056    0.96819    0.44639    1.000
    N299     N        0.00766    0.94678    0.37854    1.000
    Si300    Si       0.04296    0.00360    0.43127    1.000
    N301     N        0.04358    0.90358    0.42196    1.000
    Si302    Si       0.01350    0.93209    0.41995    1.000
    Si303    Si       0.00803    0.99129    0.37506    1.000
    Si304    Si       0.00393    0.97700    0.48693    1.000
    N305     N        0.04767    0.99886    0.38934    1.000
    N306     N        0.00660    0.86368    0.51212    1.000
    N307     N        0.03985    0.78850    0.60134    1.000
    Si308    Si       0.99621    0.78365    0.59705    1.000
    Si309    Si       0.00316    0.85567    0.55541    1.000
    Si310    Si       0.04160    0.83159    0.60742    1.000
    N311     N        0.99061    0.82909    0.58869    1.000
    N312     N        0.03766    0.98570    0.51434    1.000
    N313     N        0.00830    0.95623    0.59016    1.000
    Si314    Si       0.00616    0.90714    0.52021    1.000
    Si315    Si       0.99759    0.99691    0.58086    1.000
    N316     N        0.04632    0.91460    0.53301    1.000
    Si317    Si       0.02259    0.80054    0.73395    1.000
    Si318    Si       0.02590    0.83466    0.68512    1.000
    N319     N        0.02895    0.85101    0.64545    1.000
    N320     N        0.01106    0.85718    0.72071    1.000
    N321     N        0.00631    0.79542    0.69244    1.000
    N322     N        0.01517    0.00065    0.68698    1.000
    Si323    Si       0.04429    0.96946    0.67848    1.000
    N324     N        0.02184    0.93218    0.68649    1.000
    Si325    Si       0.99809    0.99728    0.72700    1.000
    N326     N        0.02124    0.77425    0.81635    1.000
    Si327    Si       0.01203    0.81177    0.79385    1.000
    Si328    Si       0.03583    0.86934    0.75498    1.000
    Si329    Si       0.99530    0.83358    0.85567    1.000
    N330     N        0.03715    0.83993    0.85982    1.000
    N331     N        0.04402    0.82903    0.77057    1.000
    N332     N        0.98988    0.84251    0.81464    1.000
    N333     N        0.04088    0.76331    0.74942    1.000
    Si334    Si       0.00080    0.94040    0.76994    1.000
    N335     N        0.01241    0.90051    0.77840    1.000
    N336     N        0.01949    0.97679    0.75929    1.000
    N337     N        0.04006    0.85087    0.92595    1.000
    Si338    Si       0.01095    0.85742    0.95709    1.000
    N339     N        0.00359    0.82001    0.98059    1.000
    Si340    Si       0.04191    0.87411    0.88914    1.000
    N341     N        0.02575    0.97473    0.93845    1.000
    N342     N        0.03442    0.97058    0.87193    1.000
    N343     N        0.02988    0.88300    0.98754    1.000
    Si344    Si       0.03653    0.94715    0.90755    1.000
    N345     N        0.01940    0.90913    0.89518    1.000
    Si346    Si       0.00330    0.01053    0.92675    1.000
    Si347    Si       0.07463    0.10727    0.06107    1.000
    Si348    Si       0.08574    0.04596    0.06433    1.000
    N349     N        0.07570    0.01608    0.09492    1.000
    N350     N        0.07609    0.12950    0.02312    1.000
    N351     N        0.10755    0.08284    0.07495    1.000
    N352     N        0.10806    0.02253    0.03534    1.000
    N353     N        0.09739    0.19867    0.01592    1.000
    N354     N        0.09504    0.25890    0.05782    1.000
    Si355    Si       0.08207    0.06999    0.23022    1.000
    N356     N        0.10006    0.02548    0.15989    1.000
    Si357    Si       0.07030    0.05291    0.17392    1.000
    N358     N        0.05834    0.03696    0.21458    1.000
    N359     N        0.09254    0.08618    0.19336    1.000
    Si360    Si       0.10777    0.00762    0.12251    1.000
    N361     N        0.07996    0.21469    0.16100    1.000
    N362     N        0.07210    0.20724    0.22578    1.000
    Si363    Si       0.07420    0.17725    0.13953    1.000
    Si364    Si       0.10305    0.21920    0.19825    1.000
    N365     N        0.11140    0.15789    0.13546    1.000
    Si366    Si       0.07893    0.07440    0.28897    1.000
    N367     N        0.05803    0.09521    0.25572    1.000
    N368     N        0.05063    0.05357    0.31252    1.000
    N369     N        0.10283    0.05022    0.26314    1.000
    N370     N        0.07244    0.18227    0.34502    1.000
    Si371    Si       0.08663    0.18697    0.26051    1.000
    N372     N        0.10043    0.21468    0.29054    1.000
    N373     N        0.04812    0.16916    0.27207    1.000
    N374     N        0.06552    0.08777    0.36933    1.000
    Si375    Si       0.10076    0.10024    0.38823    1.000
    N376     N        0.07933    0.01837    0.45069    1.000
    Si377    Si       0.08943    0.06024    0.44888    1.000
    N378     N        0.05395    0.08807    0.44858    1.000
    N379     N        0.08723    0.13298    0.41235    1.000
    Si380    Si       0.10691    0.16402    0.43757    1.000
    N381     N        0.09785    0.20219    0.41621    1.000
    N382     N        0.05619    0.24245    0.38105    1.000
    N383     N        0.10472    0.23233    0.48595    1.000
    N384     N        0.09540    0.16545    0.47988    1.000
    Si385    Si       0.08546    0.21000    0.37706    1.000
    Si386    Si       0.09340    0.23428    0.44447    1.000
    N387     N        0.04788    0.22412    0.44790    1.000
    N388     N        0.07618    0.11310    0.53021    1.000
    N389     N        0.07754    0.07120    0.60866    1.000
    Si390    Si       0.07747    0.07293    0.51787    1.000
    N391     N        0.09261    0.03704    0.54461    1.000
    Si392    Si       0.10356    0.04479    0.58797    1.000
    N393     N        0.08141    0.14462    0.60134    1.000
    N394     N        0.07642    0.23773    0.54002    1.000
    N395     N        0.06770    0.21165    0.60856    1.000
    Si396    Si       0.08390    0.20137    0.51070    1.000
    Si397    Si       0.05738    0.24076    0.57728    1.000
    N398     N        0.10233    0.17345    0.54249    1.000
    Si399    Si       0.10613    0.14094    0.51370    1.000
    Si400    Si       0.04812    0.17398    0.60242    1.000
    N401     N        0.07843    0.02485    0.67492    1.000
    Si402    Si       0.08917    0.11088    0.62676    1.000
    N403     N        0.06701    0.11599    0.66561    1.000
    Si404    Si       0.09279    0.03181    0.71617    1.000
    Si405    Si       0.06610    0.09302    0.70118    1.000
    N406     N        0.10415    0.07493    0.71684    1.000
    N407     N        0.06289    0.10788    0.74388    1.000
    N408     N        0.05823    0.02531    0.74429    1.000
    N409     N        0.08853    0.21732    0.73285    1.000
    Si410    Si       0.04713    0.20330    0.71905    1.000
    N411     N        0.06459    0.18420    0.68304    1.000
    N412     N        0.05722    0.08279    0.83467    1.000
    Si413    Si       0.09951    0.09091    0.83274    1.000
    Si414    Si       0.10309    0.09371    0.75599    1.000
    N415     N        0.07342    0.02679    0.86937    1.000
    N416     N        0.04842    0.22943    0.79833    1.000
    Si417    Si       0.08773    0.15715    0.86284    1.000
    Si418    Si       0.07388    0.20189    0.77464    1.000
    N419     N        0.09633    0.19956    0.86803    1.000
    Si420    Si       0.06034    0.12016    0.91838    1.000
    N421     N        0.06766    0.02098    0.97317    1.000
    N422     N        0.08096    0.08729    0.93699    1.000
    Si423    Si       0.07412    0.11550    0.98139    1.000
    Si424    Si       0.05538    0.05582    0.95405    1.000
    Si425    Si       0.10518    0.03262    0.99205    1.000
    Si426    Si       0.07876    0.21266    0.90654    1.000
    N427     N        0.05195    0.14420    0.95262    1.000
    N428     N        0.09676    0.19831    0.94471    1.000
    Si429    Si       0.08395    0.22023    0.98077    1.000
    N430     N        0.09509    0.14105    0.90203    1.000
    N431     N        0.07104    0.25472    0.91019    1.000
    N432     N        0.07821    0.31879    0.03119    1.000
    Si433    Si       0.07492    0.29543    0.06774    1.000
    N434     N        0.09397    0.31652    0.10068    1.000
    Si435    Si       0.06502    0.28845    0.00257    1.000
    Si436    Si       0.10298    0.35445    0.03444    1.000
    N437     N        0.06123    0.38807    0.10759    1.000
    Si438    Si       0.05888    0.40453    0.02198    1.000
    N439     N        0.09389    0.39725    0.04466    1.000
    Si440    Si       0.07012    0.48157    0.06329    1.000
    N441     N        0.05265    0.48393    0.02367    1.000
    N442     N        0.05105    0.45390    0.09412    1.000
    Si443    Si       0.06605    0.34778    0.12329    1.000
    N444     N        0.08452    0.32815    0.21113    1.000
    Si445    Si       0.07876    0.28657    0.21850    1.000
    N446     N        0.09281    0.36461    0.15466    1.000
    N447     N        0.06303    0.47847    0.20860    1.000
    N448     N        0.05124    0.41948    0.22889    1.000
    N449     N        0.08505    0.49719    0.14339    1.000
    Si450    Si       0.09531    0.40459    0.13408    1.000
    N451     N        0.08074    0.43627    0.15914    1.000
    Si452    Si       0.07485    0.45223    0.24257    1.000
    Si453    Si       0.09469    0.47365    0.17861    1.000
    Si454    Si       0.05737    0.46566    0.13427    1.000
    Si455    Si       0.06293    0.37309    0.30420    1.000
    N456     N        0.07905    0.28415    0.26166    1.000
    N457     N        0.05728    0.27090    0.31934    1.000
    N458     N        0.08950    0.37271    0.27203    1.000
    Si459    Si       0.05488    0.27915    0.36083    1.000
    N460     N        0.09669    0.37981    0.33253    1.000
    Si461    Si       0.09153    0.25750    0.29414    1.000
    N462     N        0.05205    0.46033    0.27769    1.000
    Si463    Si       0.09347    0.39497    0.37407    1.000
    N464     N        0.08755    0.30486    0.37192    1.000
    N465     N        0.10354    0.33652    0.43336    1.000
    Si466    Si       0.07293    0.33137    0.40499    1.000
    N467     N        0.06120    0.37072    0.38995    1.000
    N468     N        0.07917    0.29505    0.48497    1.000
    N469     N        0.05108    0.36144    0.48291    1.000
    N470     N        0.07969    0.42453    0.45795    1.000
    N471     N        0.08401    0.43738    0.37604    1.000
    N472     N        0.09322    0.49669    0.48090    1.000
    Si473    Si       0.07803    0.46735    0.44801    1.000
    Si474    Si       0.04388    0.45875    0.38327    1.000
    Si475    Si       0.09045    0.37421    0.61355    1.000
    Si476    Si       0.06021    0.37419    0.52348    1.000
    Si477    Si       0.08570    0.29292    0.61214    1.000
    N478     N        0.10024    0.33330    0.60705    1.000
    Si479    Si       0.09441    0.26614    0.51359    1.000
    N480     N        0.05390    0.28283    0.58505    1.000
    N481     N        0.10169    0.38585    0.51768    1.000
    Si482    Si       0.09483    0.47890    0.59247    1.000
    N483     N        0.08181    0.47291    0.55037    1.000
    N484     N        0.04712    0.38736    0.61135    1.000
    Si485    Si       0.06872    0.31544    0.68216    1.000
    Si486    Si       0.08897    0.37367    0.68543    1.000
    N487     N        0.06950    0.28783    0.65079    1.000
    N488     N        0.05120    0.35389    0.67245    1.000
    N489     N        0.04958    0.30495    0.71836    1.000
    Si490    Si       0.09758    0.48646    0.66823    1.000
    N491     N        0.07867    0.47058    0.63215    1.000
    Si492    Si       0.05329    0.43138    0.71056    1.000
    N493     N        0.07855    0.46672    0.70392    1.000
    N494     N        0.08294    0.39679    0.72270    1.000
    Si495    Si       0.10563    0.47575    0.73565    1.000
    N496     N        0.08979    0.34528    0.76292    1.000
    Si497    Si       0.06478    0.26961    0.81066    1.000
    Si498    Si       0.08934    0.35589    0.86175    1.000
    Si499    Si       0.06483    0.31100    0.75726    1.000
    N500     N        0.08828    0.27628    0.76885    1.000
    Si501    Si       0.06702    0.38176    0.76067    1.000
    N502     N        0.07110    0.41221    0.79379    1.000
    N503     N        0.08235    0.47897    0.77324    1.000
    Si504    Si       0.10203    0.40439    0.82495    1.000
    Si505    Si       0.05117    0.44952    0.78082    1.000
    N506     N        0.10053    0.39902    0.86897    1.000
    N507     N        0.05459    0.31282    0.96804    1.000
    N508     N        0.09429    0.31823    0.88084    1.000
    Si509    Si       0.06868    0.35324    0.97135    1.000
    Si510    Si       0.06065    0.29074    0.88810    1.000
    N511     N        0.09640    0.26251    0.98494    1.000
    N512     N        0.07374    0.38014    0.93647    1.000
    N513     N        0.09126    0.49768    0.96484    1.000
    N514     N        0.06206    0.49462    0.88924    1.000
    Si515    Si       0.06003    0.47168    0.98209    1.000
    N516     N        0.08659    0.43659    0.91740    1.000
    Si517    Si       0.09191    0.41525    0.95554    1.000
    Si518    Si       0.06400    0.40112    0.89513    1.000
    N519     N        0.06829    0.43008    0.98642    1.000
    Si520    Si       0.05159    0.46242    0.91369    1.000
    N521     N        0.07908    0.59291    0.06397    1.000
    N522     N        0.06391    0.55528    0.00661    1.000
    Si523    Si       0.08297    0.55194    0.04778    1.000
    N524     N        0.06214    0.52472    0.07342    1.000
    Si525    Si       0.05212    0.59120    0.09962    1.000
    Si526    Si       0.08693    0.63546    0.05670    1.000
    Si527    Si       0.09346    0.73204    0.01706    1.000
    N528     N        0.07843    0.69012    0.01526    1.000
    N529     N        0.08956    0.74974    0.05611    1.000
    N530     N        0.04511    0.65740    0.06788    1.000
    N531     N        0.06081    0.55975    0.12990    1.000
    N532     N        0.06642    0.59583    0.19265    1.000
    Si533    Si       0.09740    0.53956    0.13849    1.000
    Si534    Si       0.05487    0.55997    0.21917    1.000
    N535     N        0.05341    0.62724    0.12578    1.000
    N536     N        0.09116    0.54635    0.24151    1.000
    N537     N        0.05090    0.70830    0.20745    1.000
    Si538    Si       0.05029    0.72787    0.24619    1.000
    Si539    Si       0.09166    0.69515    0.19813    1.000
    Si540    Si       0.09458    0.64285    0.13183    1.000
    N541     N        0.09636    0.67473    0.16057    1.000
    N542     N        0.10159    0.67604    0.23580    1.000
    Si543    Si       0.08366    0.74512    0.15306    1.000
    N544     N        0.07043    0.52375    0.30840    1.000
    Si545    Si       0.06097    0.60966    0.30856    1.000
    Si546    Si       0.09740    0.54846    0.28423    1.000
    Si547    Si       0.07387    0.51922    0.35155    1.000
    N548     N        0.09787    0.58825    0.30906    1.000
    N549     N        0.05914    0.63598    0.27366    1.000
    N550     N        0.06109    0.63652    0.34141    1.000
    Si551    Si       0.08373    0.67297    0.27489    1.000
    N552     N        0.05580    0.73146    0.34743    1.000
    N553     N        0.05559    0.70423    0.28235    1.000
    N554     N        0.10181    0.69444    0.37030    1.000
    N555     N        0.06234    0.55640    0.37200    1.000
    Si556    Si       0.07804    0.60174    0.47936    1.000
    Si557    Si       0.07875    0.56243    0.41304    1.000
    N558     N        0.08621    0.60171    0.43724    1.000
    Si559    Si       0.07031    0.53465    0.48064    1.000
    N560     N        0.05214    0.54070    0.44153    1.000
    N561     N        0.09646    0.56689    0.49642    1.000
    N562     N        0.08901    0.71637    0.48734    1.000
    Si563    Si       0.08322    0.65567    0.37481    1.000
    Si564    Si       0.07842    0.72749    0.38678    1.000
    Si565    Si       0.08829    0.67443    0.47492    1.000
    N566     N        0.07708    0.61366    0.56934    1.000
    N567     N        0.09629    0.52318    0.59162    1.000
    Si568    Si       0.08135    0.64601    0.53924    1.000
    Si569    Si       0.07600    0.70931    0.56759    1.000
    N570     N        0.05393    0.69035    0.60088    1.000
    N571     N        0.10010    0.74091    0.58154    1.000
    Si572    Si       0.05036    0.72879    0.50157    1.000
    N573     N        0.10421    0.67961    0.55469    1.000
    N574     N        0.09359    0.63872    0.49990    1.000
    Si575    Si       0.08244    0.54767    0.62440    1.000
    N576     N        0.09939    0.56460    0.73264    1.000
    Si577    Si       0.09494    0.60717    0.65670    1.000
    N578     N        0.06187    0.58706    0.67679    1.000
    N579     N        0.08898    0.52922    0.66540    1.000
    Si580    Si       0.07547    0.55200    0.69882    1.000
    N581     N        0.09826    0.71084    0.65365    1.000
    Si582    Si       0.05862    0.68440    0.64398    1.000
    Si583    Si       0.06634    0.74237    0.72178    1.000
    N584     N        0.07901    0.70671    0.74405    1.000
    N585     N        0.08542    0.64698    0.64579    1.000
    N586     N        0.06590    0.54066    0.79565    1.000
    N587     N        0.06726    0.54955    0.86464    1.000
    N588     N        0.05018    0.60589    0.82994    1.000
    Si589    Si       0.06730    0.62527    0.86919    1.000
    Si590    Si       0.09557    0.51062    0.80051    1.000
    N591     N        0.06832    0.64775    0.78010    1.000
    N592     N        0.07209    0.66698    0.85969    1.000
    Si593    Si       0.04794    0.68395    0.76578    1.000
    N594     N        0.07679    0.57644    0.94192    1.000
    Si595    Si       0.08674    0.54247    0.96844    1.000
    Si596    Si       0.09463    0.51961    0.87487    1.000
    N597     N        0.10506    0.60353    0.87519    1.000
    Si598    Si       0.06482    0.73878    0.91288    1.000
    Si599    Si       0.09415    0.66081    0.98899    1.000
    N600     N        0.06100    0.64603    0.96430    1.000
    N601     N        0.05334    0.71350    0.94925    1.000
    N602     N        0.06871    0.85228    0.09060    1.000
    N603     N        0.06853    0.83196    0.00766    1.000
    Si604    Si       0.09721    0.87717    0.06801    1.000
    Si605    Si       0.08443    0.81480    0.11148    1.000
    N606     N        0.05466    0.78819    0.09637    1.000
    Si607    Si       0.05025    0.76713    0.05765    1.000
    Si608    Si       0.07219    0.87564    0.99777    1.000
    Si609    Si       0.09620    0.80143    0.99487    1.000
    N610     N        0.07419    0.76349    0.99329    1.000
    N611     N        0.08348    0.89685    0.03297    1.000
    N612     N        0.06803    0.96010    0.05563    1.000
    Si613    Si       0.09189    0.94107    0.02503    1.000
    Si614    Si       0.06965    0.97315    0.09666    1.000
    Si615    Si       0.08948    0.82071    0.17771    1.000
    N616     N        0.07617    0.78849    0.15431    1.000
    N617     N        0.05178    0.84328    0.17527    1.000
    Si618    Si       0.06658    0.88288    0.18546    1.000
    N619     N        0.06751    0.83253    0.24736    1.000
    N620     N        0.07762    0.76135    0.24658    1.000
    N621     N        0.10424    0.86660    0.19908    1.000
    N622     N        0.10390    0.96435    0.12397    1.000
    N623     N        0.07302    0.90871    0.15197    1.000
    Si624    Si       0.07430    0.79717    0.27300    1.000
    N625     N        0.08834    0.85679    0.32047    1.000
    Si626    Si       0.08743    0.83443    0.36024    1.000
    N627     N        0.07274    0.79510    0.35159    1.000
    Si628    Si       0.05903    0.88615    0.30646    1.000
    N629     N        0.07784    0.97358    0.25546    1.000
    N630     N        0.08596    0.91796    0.29336    1.000
    N631     N        0.06560    0.98541    0.32321    1.000
    Si632    Si       0.06324    0.95416    0.29098    1.000
    Si633    Si       0.07859    0.98079    0.36365    1.000
    Si634    Si       0.06365    0.80448    0.46993    1.000
    N635     N        0.07557    0.85910    0.39285    1.000
    N636     N        0.10440    0.79500    0.45493    1.000
    N637     N        0.08683    0.93980    0.38080    1.000
    Si638    Si       0.10020    0.98761    0.47350    1.000
    Si639    Si       0.06694    0.90336    0.38376    1.000
    Si640    Si       0.08101    0.83513    0.54727    1.000
    Si641    Si       0.07921    0.77609    0.59696    1.000
    N642     N        0.08107    0.81998    0.50751    1.000
    N643     N        0.09747    0.80253    0.56969    1.000
    N644     N        0.04650    0.85221    0.56720    1.000
    N645     N        0.10404    0.87182    0.54500    1.000
    N646     N        0.08400    0.84221    0.62328    1.000
    N647     N        0.07676    0.96289    0.56850    1.000
    Si648    Si       0.06401    0.95277    0.52782    1.000
    N649     N        0.06091    0.90501    0.60386    1.000
    Si650    Si       0.06782    0.89158    0.56255    1.000
    Si651    Si       0.04959    0.94944    0.60197    1.000
    N652     N        0.09677    0.95423    0.50174    1.000
    N653     N        0.10621    0.77808    0.63207    1.000
    N654     N        0.10054    0.76284    0.70490    1.000
    Si655    Si       0.10055    0.80555    0.70797    1.000
    N656     N        0.05935    0.81556    0.70670    1.000
    Si657    Si       0.06341    0.87878    0.63743    1.000
    N658     N        0.07969    0.89182    0.67683    1.000
    N659     N        0.07191    0.95760    0.71050    1.000
    Si660    Si       0.05754    0.91616    0.70528    1.000
    N661     N        0.06761    0.89792    0.74316    1.000
    Si662    Si       0.09586    0.99751    0.64731    1.000
    N663     N        0.06064    0.97140    0.63867    1.000
    Si664    Si       0.08398    0.80986    0.77907    1.000
    Si665    Si       0.08383    0.84365    0.85392    1.000
    N666     N        0.08692    0.77016    0.79314    1.000
    N667     N        0.09691    0.83077    0.81533    1.000
    N668     N        0.07913    0.88514    0.86849    1.000
    Si669    Si       0.06343    0.98941    0.84825    1.000
    N670     N        0.09376    0.95763    0.84905    1.000
    N671     N        0.09039    0.96507    0.78004    1.000
    Si672    Si       0.05686    0.99260    0.77436    1.000
    Si673    Si       0.09741    0.92600    0.75949    1.000
    N674     N        0.04912    0.00903    0.81280    1.000
    N675     N        0.10252    0.81796    0.95565    1.000
    N676     N        0.09375    0.82184    0.88878    1.000
    Si677    Si       0.07024    0.81669    0.92690    1.000
    N678     N        0.05101    0.77678    0.93152    1.000
    N679     N        0.10023    0.88446    0.96454    1.000
    Si680    Si       0.05106    0.98012    0.97599    1.000
    N681     N        0.07670    0.94672    0.98318    1.000
    N682     N        0.08127    0.93822    0.91461    1.000
    Si683    Si       0.09824    0.92597    0.95225    1.000
    Si684    Si       0.09804    0.92556    0.87875    1.000
    Si685    Si       0.14156    0.07365    0.09739    1.000
    N686     N        0.14164    0.03084    0.10720    1.000
    N687     N        0.14070    0.21471    0.07281    1.000
    N688     N        0.14650    0.15168    0.04670    1.000
    Si689    Si       0.11864    0.23063    0.03825    1.000
    N690     N        0.15119    0.23932    0.00814    1.000
    Si691    Si       0.15620    0.24918    0.09579    1.000
    Si692    Si       0.10960    0.15637    0.01844    1.000
    Si693    Si       0.13667    0.02083    0.18208    1.000
    N694     N        0.14052    0.09768    0.13303    1.000
    N695     N        0.15235    0.05765    0.19410    1.000
    Si696    Si       0.13262    0.09230    0.17681    1.000
    N697     N        0.15099    0.13083    0.18766    1.000
    Si698    Si       0.14814    0.13992    0.14058    1.000
    N699     N        0.14297    0.19972    0.20824    1.000
    Si700    Si       0.14531    0.15712    0.22299    1.000
    N701     N        0.14258    0.04437    0.32447    1.000
    Si702    Si       0.13965    0.03455    0.27974    1.000
    Si703    Si       0.14114    0.08808    0.32732    1.000
    Si704    Si       0.15309    0.01329    0.35401    1.000
    N705     N        0.15854    0.11846    0.25296    1.000
    N706     N        0.10948    0.10185    0.30224    1.000
    N707     N        0.13865    0.10177    0.36686    1.000
    Si708    Si       0.12990    0.13248    0.28121    1.000
    N709     N        0.13919    0.16273    0.31174    1.000
    N710     N        0.12584    0.21585    0.35708    1.000
    Si711    Si       0.10938    0.19196    0.32411    1.000
    N712     N        0.11121    0.15494    0.24938    1.000
    N713     N        0.11689    0.06969    0.41676    1.000
    Si714    Si       0.15713    0.07553    0.39553    1.000
    Si715    Si       0.14962    0.08548    0.49128    1.000
    N716     N        0.10809    0.07037    0.48736    1.000
    N717     N        0.14943    0.16040    0.43483    1.000
    N718     N        0.14243    0.06014    0.59447    1.000
    Si719    Si       0.13220    0.02798    0.52766    1.000
    N720     N        0.14591    0.12490    0.50719    1.000
    Si721    Si       0.15450    0.09877    0.60553    1.000
    N722     N        0.14485    0.12594    0.57326    1.000
    Si723    Si       0.15623    0.02686    0.61879    1.000
    N724     N        0.16210    0.05825    0.52279    1.000
    Si725    Si       0.11690    0.15924    0.58079    1.000
    N726     N        0.13726    0.19172    0.60157    1.000
    Si727    Si       0.10936    0.22032    0.61992    1.000
    N728     N        0.11320    0.25966    0.60158    1.000
    Si729    Si       0.16881    0.12624    0.66061    1.000
    N730     N        0.13103    0.11739    0.63827    1.000
    N731     N        0.13319    0.16662    0.69997    1.000
    N732     N        0.12426    0.22301    0.66257    1.000
    Si733    Si       0.15488    0.24583    0.68206    1.000
    Si734    Si       0.10397    0.19792    0.69362    1.000
    N735     N        0.14054    0.02403    0.84005    1.000
    Si736    Si       0.14717    0.04789    0.80343    1.000
    N737     N        0.11045    0.07231    0.79341    1.000
    N738     N        0.13311    0.12638    0.75932    1.000
    N739     N        0.12070    0.07990    0.86936    1.000
    N740     N        0.10662    0.13371    0.83120    1.000
    Si741    Si       0.11404    0.21672    0.83140    1.000
    Si742    Si       0.13004    0.15218    0.79722    1.000
    N743     N        0.14807    0.24657    0.77211    1.000
    N744     N        0.15732    0.21725    0.83517    1.000
    N745     N        0.10824    0.19008    0.79734    1.000
    Si746    Si       0.11255    0.25103    0.74689    1.000
    Si747    Si       0.11597    0.03417    0.87463    1.000
    Si748    Si       0.15253    0.01394    0.93266    1.000
    Si749    Si       0.11828    0.08281    0.91506    1.000
    Si750    Si       0.14321    0.10449    0.97431    1.000
    N751     N        0.15533    0.10008    0.93188    1.000
    N752     N        0.12135    0.03918    0.91689    1.000
    N753     N        0.11580    0.07506    0.98952    1.000
    N754     N        0.15649    0.16820    0.93034    1.000
    Si755    Si       0.11542    0.16017    0.93742    1.000
    N756     N        0.11630    0.13901    0.97721    1.000
    N757     N        0.13634    0.34610    0.05923    1.000
    N758     N        0.15498    0.30942    0.00427    1.000
    Si759    Si       0.13673    0.30714    0.09797    1.000
    N760     N        0.15943    0.28259    0.06928    1.000
    N761     N        0.10959    0.46324    0.06321    1.000
    Si762    Si       0.12294    0.42018    0.06731    1.000
    N763     N        0.13021    0.41299    0.10952    1.000
    Si764    Si       0.14782    0.47357    0.04636    1.000
    N765     N        0.14624    0.48721    0.00553    1.000
    N766     N        0.16049    0.43316    0.04762    1.000
    N767     N        0.10774    0.26400    0.19699    1.000
    N768     N        0.13555    0.27275    0.12794    1.000
    N769     N        0.14359    0.32006    0.17614    1.000
    Si770    Si       0.14029    0.27709    0.17112    1.000
    Si771    Si       0.11468    0.35019    0.18988    1.000
    N772     N        0.13468    0.37862    0.21741    1.000
    N773     N        0.12793    0.48772    0.20307    1.000
    Si774    Si       0.14859    0.46164    0.23114    1.000
    N775     N        0.11536    0.43683    0.24355    1.000
    N776     N        0.12387    0.27675    0.31513    1.000
    N777     N        0.14593    0.33557    0.34659    1.000
    Si778    Si       0.12628    0.29671    0.35392    1.000
    Si779    Si       0.13055    0.35866    0.31003    1.000
    Si780    Si       0.15653    0.29047    0.29065    1.000
    N781     N        0.15149    0.33087    0.28063    1.000
    N782     N        0.15657    0.26631    0.25577    1.000
    N783     N        0.14977    0.39047    0.28680    1.000
    Si784    Si       0.12163    0.39590    0.25487    1.000
    N785     N        0.11360    0.50165    0.35894    1.000
    N786     N        0.15849    0.27863    0.37615    1.000
    N787     N        0.12000    0.26911    0.43449    1.000
    Si788    Si       0.13417    0.36528    0.42934    1.000
    N789     N        0.15288    0.31354    0.47733    1.000
    Si790    Si       0.11548    0.30339    0.45859    1.000
    Si791    Si       0.16091    0.26601    0.41696    1.000
    N792     N        0.15784    0.44997    0.37762    1.000
    Si793    Si       0.12696    0.50723    0.45147    1.000
    Si794    Si       0.11754    0.46492    0.38381    1.000
    Si795    Si       0.11384    0.41400    0.48332    1.000
    N796     N        0.14344    0.38993    0.46212    1.000
    N797     N        0.13076    0.39160    0.39563    1.000
    N798     N        0.11478    0.47542    0.42514    1.000
    N799     N        0.12850    0.28304    0.53505    1.000
    N800     N        0.15353    0.34231    0.54514    1.000
    Si801    Si       0.14196    0.26682    0.57101    1.000
    Si802    Si       0.16245    0.30869    0.51858    1.000
    Si803    Si       0.13260    0.37814    0.54930    1.000
    N804     N        0.13083    0.44803    0.50307    1.000
    Si805    Si       0.14794    0.42465    0.58952    1.000
    N806     N        0.13607    0.46575    0.58951    1.000
    N807     N        0.11335    0.39643    0.58356    1.000
    Si808    Si       0.11027    0.48506    0.51933    1.000
    Si809    Si       0.15903    0.48818    0.62108    1.000
    N810     N        0.16278    0.28767    0.66601    1.000
    N811     N        0.12730    0.26810    0.71156    1.000
    Si812    Si       0.14162    0.30730    0.69892    1.000
    N813     N        0.10657    0.33332    0.69246    1.000
    Si814    Si       0.12558    0.40361    0.72984    1.000
    N815     N        0.10999    0.38580    0.65014    1.000
    N816     N        0.15396    0.39691    0.69877    1.000
    N817     N        0.13964    0.48279    0.65991    1.000
    Si818    Si       0.15272    0.39021    0.65617    1.000
    N819     N        0.13178    0.44368    0.74400    1.000
    Si820    Si       0.16432    0.49965    0.69406    1.000
    Si821    Si       0.14081    0.27796    0.80354    1.000
    Si822    Si       0.12752    0.34930    0.78240    1.000
    N823     N        0.15203    0.31361    0.78093    1.000
    N824     N        0.10969    0.36029    0.82178    1.000
    N825     N        0.10610    0.25949    0.82581    1.000
    N826     N        0.14045    0.38671    0.76722    1.000
    N827     N        0.11135    0.50116    0.84052    1.000
    N828     N        0.13256    0.43467    0.81633    1.000
    Si829    Si       0.14256    0.47010    0.84033    1.000
    Si830    Si       0.15196    0.42722    0.77912    1.000
    N831     N        0.10845    0.36402    0.98960    1.000
    N832     N        0.14673    0.27442    0.89395    1.000
    Si833    Si       0.13781    0.27795    0.97639    1.000
    N834     N        0.12666    0.31543    0.94662    1.000
    Si835    Si       0.14422    0.34225    0.97694    1.000
    Si836    Si       0.13044    0.31278    0.90355    1.000
    N837     N        0.16567    0.33700    0.88937    1.000
    N838     N        0.14753    0.45631    0.87956    1.000
    N839     N        0.13122    0.43289    0.96307    1.000
    N840     N        0.16102    0.49139    0.93940    1.000
    Si841    Si       0.12416    0.42409    0.89587    1.000
    N842     N        0.16561    0.40791    0.91065    1.000
    Si843    Si       0.13032    0.47661    0.96693    1.000
    Si844    Si       0.16647    0.41150    0.95650    1.000
    N845     N        0.12594    0.54315    0.04466    1.000
    Si846    Si       0.14874    0.53079    0.00654    1.000
    Si847    Si       0.15659    0.54284    0.07673    1.000
    N848     N        0.13653    0.54926    0.11650    1.000
    Si849    Si       0.15496    0.64064    0.09605    1.000
    Si850    Si       0.15612    0.64003    0.01783    1.000
    N851     N        0.11254    0.63766    0.02177    1.000
    N852     N        0.11096    0.64519    0.09101    1.000
    N853     N        0.15975    0.75022    0.06416    1.000
    N854     N        0.13370    0.72875    0.00261    1.000
    Si855    Si       0.12133    0.75539    0.08659    1.000
    N856     N        0.11448    0.55193    0.17665    1.000
    Si857    Si       0.15318    0.58299    0.13963    1.000
    Si858    Si       0.12202    0.52892    0.21427    1.000
    N859     N        0.13276    0.61110    0.21932    1.000
    N860     N        0.11981    0.61085    0.14811    1.000
    N861     N        0.15876    0.54252    0.23125    1.000
    Si862    Si       0.10966    0.59360    0.18737    1.000
    N863     N        0.11502    0.73282    0.12371    1.000
    Si864    Si       0.13541    0.69887    0.15247    1.000
    Si865    Si       0.13742    0.65467    0.22650    1.000
    N866     N        0.16045    0.67397    0.12450    1.000
    N867     N        0.15030    0.67816    0.19278    1.000
    N868     N        0.10570    0.73454    0.18857    1.000
    N869     N        0.14570    0.75437    0.24766    1.000
    Si870    Si       0.12594    0.59915    0.34455    1.000
    N871     N        0.13755    0.53349    0.29495    1.000
    N872     N        0.14402    0.56264    0.36103    1.000
    Si873    Si       0.14324    0.52464    0.33704    1.000
    N874     N        0.15627    0.62387    0.32638    1.000
    N875     N        0.12109    0.74624    0.32406    1.000
    Si876    Si       0.12402    0.70508    0.33627    1.000
    Si877    Si       0.15863    0.66215    0.30504    1.000
    N878     N        0.11721    0.67712    0.30377    1.000
    N879     N        0.16227    0.65744    0.26108    1.000
    Si880    Si       0.11768    0.62775    0.42415    1.000
    Si881    Si       0.15436    0.54783    0.39903    1.000
    N882     N        0.11738    0.54296    0.42346    1.000
    N883     N        0.11275    0.62337    0.38010    1.000
    N884     N        0.15788    0.63096    0.44142    1.000
    N885     N        0.16299    0.51199    0.47296    1.000
    N886     N        0.15433    0.69383    0.48698    1.000
    N887     N        0.11028    0.75828    0.39230    1.000
    N888     N        0.15211    0.74679    0.45240    1.000
    Si889    Si       0.15396    0.67367    0.44706    1.000
    Si890    Si       0.12867    0.73128    0.48618    1.000
    N891     N        0.11100    0.66871    0.43851    1.000
    N892     N        0.13575    0.57514    0.55639    1.000
    Si893    Si       0.13323    0.53505    0.57349    1.000
    Si894    Si       0.13374    0.56623    0.51492    1.000
    Si895    Si       0.11658    0.60328    0.58232    1.000
    N896     N        0.13544    0.51778    0.53244    1.000
    N897     N        0.16218    0.52766    0.60483    1.000
    N898     N        0.16409    0.58944    0.49382    1.000
    N899     N        0.14834    0.63435    0.58208    1.000
    N900     N        0.14356    0.69712    0.61024    1.000
    Si901    Si       0.14406    0.67820    0.57079    1.000
    Si902    Si       0.12678    0.73741    0.62117    1.000
    N903     N        0.13007    0.59798    0.67833    1.000
    N904     N        0.13127    0.50566    0.72003    1.000
    N905     N        0.10804    0.58431    0.62103    1.000
    Si906    Si       0.12031    0.67337    0.64189    1.000
    N907     N        0.15568    0.74332    0.65501    1.000
    N908     N        0.15713    0.65384    0.65855    1.000
    Si909    Si       0.12169    0.73394    0.68211    1.000
    N910     N        0.13951    0.70471    0.70957    1.000
    N911     N        0.12755    0.59587    0.79955    1.000
    Si912    Si       0.13655    0.61094    0.84528    1.000
    N913     N        0.13438    0.51708    0.78263    1.000
    Si914    Si       0.13082    0.54043    0.74462    1.000
    Si915    Si       0.10911    0.63712    0.79010    1.000
    Si916    Si       0.12193    0.74882    0.80615    1.000
    N917     N        0.12486    0.65041    0.82888    1.000
    N918     N        0.14280    0.72570    0.77463    1.000
    N919     N        0.13287    0.65747    0.75975    1.000
    Si920    Si       0.11136    0.68126    0.85605    1.000
    Si921    Si       0.12086    0.69783    0.74887    1.000
    N922     N        0.11252    0.71815    0.83375    1.000
    Si923    Si       0.16084    0.52731    0.91486    1.000
    Si924    Si       0.15597    0.58195    0.96379    1.000
    N925     N        0.13806    0.60626    0.93267    1.000
    N926     N        0.12174    0.54099    0.90266    1.000
    N927     N        0.12797    0.55179    0.97663    1.000
    Si928    Si       0.10899    0.58114    0.91141    1.000
    Si929    Si       0.14812    0.74623    0.90847    1.000
    Si930    Si       0.14628    0.64938    0.92639    1.000
    N931     N        0.12429    0.67015    0.95907    1.000
    N932     N        0.13691    0.67427    0.89124    1.000
    Si933    Si       0.15023    0.70135    0.97317    1.000
    N934     N        0.10613    0.73919    0.90409    1.000
    N935     N        0.13352    0.79452    0.01716    1.000
    N936     N        0.13426    0.85691    0.05857    1.000
    N937     N        0.12219    0.79699    0.09462    1.000
    Si938    Si       0.15425    0.83071    0.03033    1.000
    Si939    Si       0.14873    0.82099    0.12005    1.000
    Si940    Si       0.15857    0.75930    0.02094    1.000
    Si941    Si       0.15580    0.88513    0.08664    1.000
    N942     N        0.15874    0.85349    0.99336    1.000
    N943     N        0.13130    0.95766    0.02142    1.000
    Si944    Si       0.14375    0.99734    0.04076    1.000
    N945     N        0.11694    0.90240    0.09669    1.000
    N946     N        0.16331    0.97981    0.07410    1.000
    Si947    Si       0.10572    0.84570    0.23579    1.000
    Si948    Si       0.16142    0.81253    0.20482    1.000
    Si949    Si       0.13517    0.86905    0.16846    1.000
    N950     N        0.11396    0.83592    0.14144    1.000
    N951     N        0.11768    0.80556    0.20995    1.000
    Si952    Si       0.11317    0.76292    0.22023    1.000
    N953     N        0.13817    0.99606    0.21802    1.000
    Si954    Si       0.11029    0.92358    0.13242    1.000
    N955     N        0.14321    0.91034    0.15642    1.000
    N956     N        0.16380    0.99692    0.15926    1.000
    Si957    Si       0.12459    0.83757    0.30792    1.000
    N958     N        0.12742    0.86635    0.26776    1.000
    N959     N        0.12742    0.81889    0.35331    1.000
    Si960    Si       0.14134    0.76657    0.28914    1.000
    N961     N        0.11363    0.80079    0.28750    1.000
    Si962    Si       0.11337    0.77769    0.35274    1.000
    N963     N        0.16557    0.85078    0.31431    1.000
    N964     N        0.14189    0.99103    0.28409    1.000
    Si965    Si       0.12705    0.90761    0.28117    1.000
    N966     N        0.15748    0.91684    0.31324    1.000
    N967     N        0.13944    0.93443    0.25059    1.000
    Si968    Si       0.12306    0.97367    0.25028    1.000
    Si969    Si       0.13165    0.77570    0.42696    1.000
    N970     N        0.15566    0.80763    0.41428    1.000
    Si971    Si       0.12108    0.80089    0.49462    1.000
    Si972    Si       0.16158    0.83114    0.37881    1.000
    N973     N        0.13549    0.00637    0.48929    1.000
    N974     N        0.11915    0.99277    0.37005    1.000
    N975     N        0.16397    0.94191    0.48203    1.000
    N976     N        0.11301    0.95997    0.44046    1.000
    N977     N        0.11875    0.88932    0.47722    1.000
    Si978    Si       0.12301    0.95942    0.39938    1.000
    N979     N        0.15949    0.94035    0.39717    1.000
    Si980    Si       0.12288    0.93124    0.47310    1.000
    Si981    Si       0.13419    0.86951    0.51271    1.000
    Si982    Si       0.12728    0.76815    0.55843    1.000
    N983     N        0.12890    0.76343    0.51592    1.000
    N984     N        0.15174    0.82838    0.50215    1.000
    N985     N        0.15748    0.82916    0.61870    1.000
    N986     N        0.16423    0.76795    0.58088    1.000
    Si987    Si       0.11742    0.97452    0.58046    1.000
    N988     N        0.13584    0.94098    0.60096    1.000
    N989     N        0.14501    0.99252    0.55226    1.000
    N990     N        0.11425    0.00933    0.61139    1.000
    N991     N        0.14873    0.87019    0.72123    1.000
    Si992    Si       0.11933    0.87354    0.68550    1.000
    Si993    Si       0.11793    0.81968    0.63513    1.000
    N994     N        0.11826    0.82977    0.67789    1.000
    N995     N        0.12802    0.00624    0.72459    1.000
    N996     N        0.13042    0.93495    0.73035    1.000
    N997     N        0.12176    0.96862    0.66615    1.000
    Si998    Si       0.13646    0.93566    0.64402    1.000
    N999     N        0.14235    0.89271    0.65362    1.000
    Si1000   Si       0.11424    0.96820    0.70926    1.000
    N1001    N        0.14942    0.77908    0.82282    1.000
    Si1002   Si       0.13990    0.82204    0.82107    1.000
    N1003    N        0.14794    0.84083    0.86065    1.000
    N1004    N        0.15712    0.84388    0.78716    1.000
    N1005    N        0.11187    0.81857    0.74680    1.000
    Si1006   Si       0.15523    0.83274    0.74572    1.000
    Si1007   Si       0.15698    0.88609    0.79082    1.000
    Si1008   Si       0.11814    0.95007    0.81384    1.000
    N1009    N        0.12001    0.90943    0.79235    1.000
    N1010    N        0.15836    0.96150    0.82643    1.000
    Si1011   Si       0.12968    0.85361    0.95959    1.000
    Si1012   Si       0.13752    0.82364    0.89950    1.000
    N1013    N        0.15661    0.85261    0.92524    1.000
    N1014    N        0.15898    0.78707    0.90535    1.000
    Si1015   Si       0.16355    0.88341    0.86931    1.000
    N1016    N        0.13363    0.00491    0.97176    1.000
    Si1017   Si       0.16030    0.94435    0.91100    1.000
    N1018    N        0.13841    0.94088    0.94989    1.000
    N1019    N        0.15534    0.98623    0.89873    1.000
    N1020    N        0.14036    0.91702    0.88446    1.000
    Si1021   Si       0.14946    0.96550    0.98189    1.000
    N1022    N        0.20566    0.02253    0.09694    1.000
    Si1023   Si       0.19108    0.04089    0.06084    1.000
    N1024    N        0.17555    0.08211    0.06963    1.000
    N1025    N        0.17596    0.02405    0.02539    1.000
    Si1026   Si       0.17172    0.11677    0.04080    1.000
    Si1027   Si       0.21755    0.09250    0.07360    1.000
    N1028    N        0.21345    0.12914    0.05106    1.000
    Si1029   Si       0.16603    0.17855    0.07461    1.000
    N1030    N        0.20544    0.19673    0.06133    1.000
    N1031    N        0.17642    0.15901    0.11496    1.000
    N1032    N        0.19130    0.23768    0.11701    1.000
    Si1033   Si       0.22204    0.21960    0.09421    1.000
    N1034    N        0.21192    0.08808    0.21517    1.000
    Si1035   Si       0.18705    0.05336    0.22009    1.000
    Si1036   Si       0.19311    0.12494    0.20051    1.000
    N1037    N        0.20766    0.01629    0.20647    1.000
    N1038    N        0.21524    0.12978    0.16279    1.000
    N1039    N        0.20322    0.19861    0.16890    1.000
    N1040    N        0.20980    0.23050    0.23189    1.000
    Si1041   Si       0.18683    0.20219    0.20980    1.000
    Si1042   Si       0.20633    0.24059    0.15840    1.000
    N1043    N        0.19403    0.16254    0.22566    1.000
    Si1044   Si       0.21373    0.16690    0.14067    1.000
    Si1045   Si       0.19076    0.09814    0.27165    1.000
    N1046    N        0.17593    0.05419    0.26283    1.000
    N1047    N        0.17587    0.10891    0.31179    1.000
    Si1048   Si       0.17769    0.15145    0.32785    1.000
    N1049    N        0.19504    0.22884    0.34335    1.000
    N1050    N        0.21111    0.16945    0.30251    1.000
    N1051    N        0.17582    0.16748    0.36843    1.000
    Si1052   Si       0.21742    0.16048    0.26106    1.000
    Si1053   Si       0.16634    0.21099    0.37139    1.000
    Si1054   Si       0.22571    0.20741    0.31954    1.000
    Si1055   Si       0.21602    0.08787    0.44093    1.000
    N1056    N        0.18725    0.10220    0.41068    1.000
    N1057    N        0.18958    0.08599    0.47447    1.000
    Si1058   Si       0.20307    0.01867    0.40979    1.000
    N1059    N        0.17160    0.03653    0.38639    1.000
    N1060    N        0.16833    0.22397    0.41316    1.000
    N1061    N        0.21045    0.16832    0.42517    1.000
    N1062    N        0.18923    0.21140    0.48009    1.000
    Si1063   Si       0.17893    0.19319    0.44257    1.000
    Si1064   Si       0.17793    0.14412    0.40602    1.000
    N1065    N        0.21065    0.10725    0.53662    1.000
    Si1066   Si       0.20411    0.07115    0.51281    1.000
    Si1067   Si       0.17317    0.13115    0.54053    1.000
    Si1068   Si       0.18435    0.21172    0.52319    1.000
    N1069    N        0.17797    0.17377    0.54390    1.000
    N1070    N        0.21442    0.18955    0.59807    1.000
    Si1071   Si       0.17311    0.19575    0.58059    1.000
    N1072    N        0.17435    0.23758    0.56030    1.000
    Si1073   Si       0.21340    0.25921    0.55459    1.000
    Si1074   Si       0.21842    0.01328    0.63002    1.000
    N1075    N        0.19194    0.10461    0.62709    1.000
    N1076    N        0.20079    0.03850    0.71973    1.000
    Si1077   Si       0.19341    0.06550    0.68457    1.000
    N1078    N        0.17828    0.03940    0.65360    1.000
    N1079    N        0.17110    0.10104    0.69612    1.000
    Si1080   Si       0.17036    0.12149    0.73510    1.000
    N1081    N        0.19051    0.23567    0.64282    1.000
    Si1082   Si       0.21180    0.19515    0.64175    1.000
    Si1083   Si       0.17303    0.17995    0.69886    1.000
    N1084    N        0.19555    0.15569    0.72718    1.000
    N1085    N        0.18855    0.16478    0.66122    1.000
    N1086    N        0.17406    0.22048    0.71294    1.000
    Si1087   Si       0.19057    0.11464    0.80315    1.000
    N1088    N        0.19420    0.09845    0.76385    1.000
    Si1089   Si       0.20805    0.05808    0.75915    1.000
    N1090    N        0.17171    0.03187    0.77335    1.000
    N1091    N        0.16810    0.08449    0.82213    1.000
    Si1092   Si       0.16528    0.08739    0.86481    1.000
    Si1093   Si       0.18712    0.23459    0.75500    1.000
    N1094    N        0.20779    0.21276    0.78525    1.000
    Si1095   Si       0.18811    0.19126    0.81770    1.000
    N1096    N        0.17311    0.15484    0.80299    1.000
    N1097    N        0.21683    0.18067    0.84691    1.000
    Si1098   Si       0.22197    0.13783    0.86041    1.000
    Si1099   Si       0.16496    0.25002    0.86312    1.000
    N1100    N        0.18410    0.12283    0.87690    1.000
    N1101    N        0.18996    0.05751    0.88491    1.000
    N1102    N        0.18417    0.03855    0.94947    1.000
    Si1103   Si       0.19743    0.07259    0.92496    1.000
    N1104    N        0.21348    0.11088    0.94092    1.000
    Si1105   Si       0.19531    0.01900    0.98761    1.000
    Si1106   Si       0.21797    0.11683    0.98357    1.000
    N1107    N        0.17919    0.10568    0.99925    1.000
    N1108    N        0.20697    0.21362    0.96386    1.000
    N1109    N        0.19011    0.23040    0.89527    1.000
    N1110    N        0.21475    0.17267    0.90868    1.000
    Si1111   Si       0.18812    0.20009    0.92912    1.000
    Si1112   Si       0.18940    0.24501    0.98929    1.000
    Si1113   Si       0.18310    0.13660    0.91943    1.000
    N1114    N        0.20612    0.33297    0.04770    1.000
    Si1115   Si       0.17867    0.35160    0.07675    1.000
    Si1116   Si       0.18398    0.29828    0.03566    1.000
    N1117    N        0.21179    0.26893    0.01624    1.000
    N1118    N        0.16943    0.33089    0.11354    1.000
    N1119    N        0.19236    0.39082    0.08527    1.000
    Si1120   Si       0.20035    0.41703    0.05235    1.000
    Si1121   Si       0.21454    0.49463    0.06399    1.000
    N1122    N        0.17313    0.50295    0.06579    1.000
    N1123    N        0.22104    0.39695    0.01989    1.000
    N1124    N        0.21420    0.32627    0.17418    1.000
    Si1125   Si       0.18883    0.26803    0.22641    1.000
    Si1126   Si       0.17635    0.34039    0.15628    1.000
    N1127    N        0.20011    0.37437    0.23228    1.000
    N1128    N        0.17876    0.26193    0.18481    1.000
    Si1129   Si       0.22261    0.33567    0.21460    1.000
    N1130    N        0.20959    0.30308    0.24039    1.000
    Si1131   Si       0.17531    0.40620    0.12129    1.000
    N1132    N        0.17407    0.38284    0.15991    1.000
    Si1133   Si       0.21765    0.45419    0.19922    1.000
    Si1134   Si       0.17398    0.39344    0.20358    1.000
    N1135    N        0.17879    0.43655    0.21016    1.000
    N1136    N        0.20911    0.43316    0.13378    1.000
    N1137    N        0.19689    0.28905    0.30828    1.000
    Si1138   Si       0.17913    0.36482    0.26849    1.000
    Si1139   Si       0.19850    0.27399    0.34957    1.000
    N1140    N        0.21291    0.35480    0.29685    1.000
    Si1141   Si       0.21916    0.31253    0.28260    1.000
    N1142    N        0.19134    0.38149    0.36139    1.000
    N1143    N        0.18282    0.50588    0.33836    1.000
    N1144    N        0.16589    0.47989    0.26336    1.000
    N1145    N        0.21089    0.31210    0.37131    1.000
    Si1146   Si       0.17735    0.34052    0.37481    1.000
    N1147    N        0.19704    0.28332    0.43709    1.000
    Si1148   Si       0.18737    0.32278    0.45298    1.000
    N1149    N        0.20791    0.35727    0.47027    1.000
    N1150    N        0.16907    0.34111    0.41807    1.000
    Si1151   Si       0.18653    0.48201    0.37478    1.000
    N1152    N        0.22432    0.46050    0.37266    1.000
    Si1153   Si       0.18940    0.39367    0.46080    1.000
    Si1154   Si       0.16996    0.40843    0.38693    1.000
    N1155    N        0.19679    0.41087    0.42077    1.000
    N1156    N        0.20120    0.42241    0.49101    1.000
    N1157    N        0.19940    0.35894    0.59102    1.000
    N1158    N        0.19960    0.29891    0.53838    1.000
    Si1159   Si       0.18409    0.32528    0.57053    1.000
    N1160    N        0.17027    0.29332    0.59418    1.000
    Si1161   Si       0.17304    0.43801    0.51822    1.000
    N1162    N        0.18923    0.47599    0.52602    1.000
    Si1163   Si       0.20748    0.39491    0.56785    1.000
    N1164    N        0.16861    0.40994    0.55377    1.000
    N1165    N        0.20141    0.47699    0.62148    1.000
    N1166    N        0.18231    0.35798    0.66037    1.000
    Si1167   Si       0.18627    0.27760    0.63132    1.000
    Si1168   Si       0.18309    0.36272    0.70355    1.000
    Si1169   Si       0.21273    0.34655    0.63117    1.000
    N1170    N        0.17266    0.32672    0.72147    1.000
    N1171    N        0.22244    0.30075    0.63459    1.000
    Si1172   Si       0.20751    0.43471    0.63049    1.000
    N1173    N        0.19706    0.47586    0.70829    1.000
    N1174    N        0.16882    0.41574    0.62441    1.000
    Si1175   Si       0.19066    0.31547    0.86064    1.000
    Si1176   Si       0.18809    0.31057    0.75718    1.000
    N1177    N        0.21851    0.34095    0.84104    1.000
    N1178    N        0.17032    0.28375    0.83647    1.000
    N1179    N        0.22371    0.33204    0.77213    1.000
    N1180    N        0.20760    0.27171    0.74907    1.000
    N1181    N        0.19323    0.43818    0.77846    1.000
    N1182    N        0.18644    0.48270    0.83061    1.000
    N1183    N        0.20557    0.41905    0.84791    1.000
    Si1184   Si       0.21373    0.44798    0.81563    1.000
    N1185    N        0.20367    0.50661    0.76778    1.000
    Si1186   Si       0.21174    0.49456    0.86897    1.000
    Si1187   Si       0.20832    0.46782    0.75021    1.000
    N1188    N        0.17448    0.36846    0.95851    1.000
    Si1189   Si       0.18602    0.26968    0.91493    1.000
    N1190    N        0.21483    0.29026    0.88869    1.000
    Si1191   Si       0.18383    0.36812    0.91293    1.000
    N1192    N        0.17498    0.26793    0.95469    1.000
    N1193    N        0.22271    0.37439    0.89613    1.000
    Si1194   Si       0.20079    0.47496    0.94250    1.000
    N1195    N        0.21370    0.46363    0.90272    1.000
    N1196    N        0.20277    0.43581    0.96286    1.000
    Si1197   Si       0.18628    0.43453    0.88435    1.000
    Si1198   Si       0.19798    0.58040    0.02113    1.000
    N1199    N        0.18829    0.57195    0.06438    1.000
    Si1200   Si       0.21496    0.58977    0.09513    1.000
    N1201    N        0.17803    0.60953    0.11419    1.000
    N1202    N        0.16939    0.60379    0.99714    1.000
    N1203    N        0.18972    0.54273    0.00166    1.000
    Si1204   Si       0.21721    0.66450    0.06542    1.000
    N1205    N        0.17566    0.64827    0.05817    1.000
    N1206    N        0.17645    0.67272    0.99586    1.000
    N1207    N        0.22003    0.69586    0.09615    1.000
    N1208    N        0.17657    0.58004    0.17820    1.000
    Si1209   Si       0.21948    0.57771    0.17401    1.000
    Si1210   Si       0.16747    0.58366    0.22083    1.000
    N1211    N        0.20307    0.71974    0.22671    1.000
    N1212    N        0.21804    0.67501    0.17018    1.000
    N1213    N        0.17619    0.72178    0.15753    1.000
    Si1214   Si       0.19860    0.69005    0.13467    1.000
    Si1215   Si       0.18853    0.69855    0.19229    1.000
    N1216    N        0.20903    0.53605    0.28019    1.000
    Si1217   Si       0.19751    0.62535    0.33514    1.000
    N1218    N        0.19444    0.60087    0.25114    1.000
    Si1219   Si       0.22044    0.57774    0.28010    1.000
    N1220    N        0.21873    0.59097    0.32027    1.000
    Si1221   Si       0.21740    0.50915    0.31285    1.000
    Si1222   Si       0.17054    0.52163    0.26743    1.000
    Si1223   Si       0.20180    0.64181    0.26085    1.000
    N1224    N        0.20570    0.65453    0.30310    1.000
    Si1225   Si       0.21905    0.75599    0.29424    1.000
    N1226    N        0.16403    0.68945    0.34257    1.000
    N1227    N        0.18113    0.56781    0.42872    1.000
    Si1228   Si       0.19157    0.52639    0.44250    1.000
    Si1229   Si       0.18694    0.60130    0.45480    1.000
    N1230    N        0.22163    0.62676    0.43701    1.000
    N1231    N        0.17575    0.50942    0.40552    1.000
    Si1232   Si       0.19200    0.73042    0.44898    1.000
    N1233    N        0.20491    0.64147    0.37332    1.000
    Si1234   Si       0.19244    0.68383    0.37761    1.000
    N1235    N        0.18193    0.69561    0.42018    1.000
    N1236    N        0.20823    0.72687    0.49238    1.000
    N1237    N        0.20267    0.54610    0.53137    1.000
    Si1238   Si       0.19776    0.58789    0.52001    1.000
    N1239    N        0.20778    0.61359    0.55663    1.000
    Si1240   Si       0.18768    0.61973    0.59339    1.000
    Si1241   Si       0.17726    0.51401    0.51535    1.000
    Si1242   Si       0.19120    0.73529    0.57583    1.000
    Si1243   Si       0.18953    0.69399    0.51264    1.000
    N1244    N        0.20730    0.71887    0.61290    1.000
    N1245    N        0.20498    0.65475    0.61124    1.000
    N1246    N        0.17652    0.70205    0.55232    1.000
    N1247    N        0.21569    0.65872    0.50467    1.000
    N1248    N        0.18189    0.59249    0.62588    1.000
    Si1249   Si       0.18836    0.54995    0.63370    1.000
    N1250    N        0.18140    0.53747    0.67542    1.000
    N1251    N        0.19672    0.60170    0.69359    1.000
    Si1252   Si       0.19532    0.56104    0.70864    1.000
    Si1253   Si       0.16769    0.61268    0.66192    1.000
    N1254    N        0.16767    0.56198    0.74331    1.000
    Si1255   Si       0.19870    0.74013    0.65177    1.000
    N1256    N        0.19478    0.66049    0.72575    1.000
    Si1257   Si       0.18169    0.68179    0.63590    1.000
    Si1258   Si       0.18303    0.69983    0.71116    1.000
    N1259    N        0.20251    0.69944    0.67186    1.000
    N1260    N        0.20497    0.72911    0.73529    1.000
    N1261    N        0.19061    0.61417    0.78003    1.000
    Si1262   Si       0.19692    0.56052    0.85534    1.000
    N1263    N        0.18293    0.55324    0.81521    1.000
    N1264    N        0.17668    0.60078    0.85770    1.000
    Si1265   Si       0.21222    0.62753    0.85913    1.000
    Si1266   Si       0.17358    0.51262    0.80039    1.000
    Si1267   Si       0.16594    0.57924    0.78540    1.000
    N1268    N        0.20490    0.73660    0.81188    1.000
    Si1269   Si       0.17562    0.65117    0.76241    1.000
    N1270    N        0.19488    0.68199    0.78560    1.000
    Si1271   Si       0.18572    0.72334    0.77504    1.000
    N1272    N        0.19951    0.67025    0.85580    1.000
    Si1273   Si       0.21600    0.69365    0.82155    1.000
    Si1274   Si       0.18001    0.75502    0.84377    1.000
    N1275    N        0.18341    0.55612    0.94026    1.000
    N1276    N        0.18773    0.52764    0.88181    1.000
    Si1277   Si       0.21594    0.54340    0.96514    1.000
    N1278    N        0.17342    0.72907    0.87747    1.000
    N1279    N        0.16640    0.72705    0.94358    1.000
    Si1280   Si       0.21888    0.67013    0.98931    1.000
    Si1281   Si       0.17775    0.68755    0.88921    1.000
    Si1282   Si       0.20549    0.74139    0.96094    1.000
    N1283    N        0.19096    0.66082    0.92205    1.000
    N1284    N        0.18758    0.81009    0.05190    1.000
    Si1285   Si       0.18653    0.77975    0.08246    1.000
    N1286    N        0.21603    0.86432    0.03098    1.000
    N1287    N        0.17349    0.85762    0.11587    1.000
    N1288    N        0.19744    0.75544    0.00237    1.000
    Si1289   Si       0.22034    0.90863    0.03624    1.000
    Si1290   Si       0.19091    0.94819    0.08120    1.000
    N1291    N        0.18512    0.90870    0.06855    1.000
    Si1292   Si       0.17377    0.99655    0.11487    1.000
    N1293    N        0.20635    0.91385    0.99401    1.000
    N1294    N        0.18009    0.78693    0.12312    1.000
    Si1295   Si       0.19483    0.76016    0.15643    1.000
    N1296    N        0.18656    0.77852    0.19450    1.000
    Si1297   Si       0.20090    0.86113    0.14985    1.000
    N1298    N        0.16920    0.84622    0.17816    1.000
    N1299    N        0.17731    0.82273    0.24319    1.000
    Si1300   Si       0.18870    0.75923    0.23411    1.000
    Si1301   Si       0.18328    0.92872    0.24113    1.000
    N1302    N        0.21410    0.90178    0.15693    1.000
    Si1303   Si       0.17767    0.98573    0.19998    1.000
    N1304    N        0.18517    0.94362    0.20046    1.000
    N1305    N        0.19322    0.95520    0.12301    1.000
    Si1306   Si       0.18157    0.92860    0.15818    1.000
    Si1307   Si       0.20067    0.81073    0.32106    1.000
    N1308    N        0.18093    0.77376    0.30125    1.000
    N1309    N        0.19970    0.81245    0.36520    1.000
    Si1310   Si       0.21946    0.81536    0.25071    1.000
    Si1311   Si       0.17212    0.85524    0.27079    1.000
    N1312    N        0.21972    0.83487    0.28804    1.000
    Si1313   Si       0.17738    0.88578    0.33815    1.000
    N1314    N        0.20252    0.95373    0.27422    1.000
    N1315    N        0.18339    0.98710    0.33835    1.000
    N1316    N        0.19410    0.88862    0.25118    1.000
    N1317    N        0.22128    0.88711    0.33390    1.000
    Si1318   Si       0.22565    0.99212    0.34355    1.000
    Si1319   Si       0.16953    0.96178    0.30384    1.000
    Si1320   Si       0.21893    0.79289    0.39983    1.000
    N1321    N        0.17092    0.87259    0.37941    1.000
    N1322    N        0.21504    0.75941    0.43005    1.000
    N1323    N        0.21955    0.86158    0.49404    1.000
    Si1324   Si       0.17240    0.98438    0.48202    1.000
    N1325    N        0.19388    0.99863    0.44646    1.000
    N1326    N        0.19156    0.89296    0.44635    1.000
    Si1327   Si       0.18924    0.90749    0.48956    1.000
    Si1328   Si       0.18423    0.90756    0.40699    1.000
    N1329    N        0.22333    0.92056    0.39438    1.000
    N1330    N        0.19058    0.83129    0.55418    1.000
    Si1331   Si       0.19495    0.82791    0.51154    1.000
    Si1332   Si       0.18448    0.80829    0.59147    1.000
    Si1333   Si       0.19540    0.87356    0.55654    1.000
    N1334    N        0.21949    0.79252    0.49965    1.000
    N1335    N        0.22376    0.80483    0.61044    1.000
    N1336    N        0.18378    0.88551    0.59750    1.000
    N1337    N        0.17070    0.89006    0.52623    1.000
    Si1338   Si       0.17636    0.92812    0.59918    1.000
    N1339    N        0.19929    0.99296    0.51406    1.000
    N1340    N        0.20017    0.94769    0.57116    1.000
    Si1341   Si       0.18942    0.98753    0.55861    1.000
    N1342    N        0.19111    0.00593    0.59794    1.000
    N1343    N        0.17325    0.79758    0.72837    1.000
    N1344    N        0.21849    0.76711    0.67759    1.000
    N1345    N        0.20434    0.85387    0.66343    1.000
    Si1346   Si       0.20764    0.77208    0.72114    1.000
    Si1347   Si       0.17309    0.86601    0.63521    1.000
    Si1348   Si       0.21770    0.87401    0.69927    1.000
    N1349    N        0.21415    0.85003    0.73581    1.000
    Si1350   Si       0.20869    0.94453    0.67253    1.000
    N1351    N        0.18033    0.94360    0.64142    1.000
    Si1352   Si       0.16466    0.90959    0.72865    1.000
    N1353    N        0.19750    0.97871    0.72922    1.000
    N1354    N        0.19976    0.91546    0.70278    1.000
    Si1355   Si       0.16978    0.01086    0.73526    1.000
    N1356    N        0.21291    0.77926    0.85579    1.000
    N1357    N        0.18399    0.91751    0.77035    1.000
    Si1358   Si       0.19188    0.93450    0.81445    1.000
    Si1359   Si       0.21269    0.94853    0.75692    1.000
    N1360    N        0.21419    0.96969    0.79328    1.000
    N1361    N        0.17371    0.89680    0.83033    1.000
    N1362    N        0.21005    0.00109    0.85270    1.000
    Si1363   Si       0.16592    0.99171    0.85621    1.000
    Si1364   Si       0.20074    0.85515    0.92316    1.000
    Si1365   Si       0.20131    0.78669    0.89686    1.000
    N1366    N        0.22252    0.85002    0.96339    1.000
    Si1367   Si       0.19838    0.87118    0.99182    1.000
    N1368    N        0.22055    0.82279    0.90379    1.000
    Si1369   Si       0.21513    0.94511    0.96593    1.000
    N1370    N        0.20151    0.94247    0.92355    1.000
    N1371    N        0.20169    0.88508    0.88980    1.000
    N1372    N        0.19094    0.97709    0.98024    1.000
    Si1373   Si       0.25463    0.06099    0.01244    1.000
    Si1374   Si       0.24194    0.04112    0.10881    1.000
    N1375    N        0.23594    0.08439    0.11249    1.000
    N1376    N        0.23005    0.05897    0.04919    1.000
    N1377    N        0.28135    0.03576    0.09184    1.000
    N1378    N        0.24580    0.25096    0.07684    1.000
    N1379    N        0.27227    0.16187    0.05894    1.000
    N1380    N        0.24955    0.21246    0.01732    1.000
    Si1381   Si       0.23387    0.16905    0.03889    1.000
    Si1382   Si       0.27562    0.15891    0.10231    1.000
    N1383    N        0.24439    0.19004    0.11834    1.000
    Si1384   Si       0.24703    0.25268    0.03489    1.000
    N1385    N        0.24704    0.02746    0.14973    1.000
    Si1386   Si       0.24894    0.10483    0.14870    1.000
    N1387    N        0.27416    0.08170    0.17522    1.000
    Si1388   Si       0.25266    0.09273    0.23466    1.000
    N1389    N        0.27730    0.24087    0.21880    1.000
    N1390    N        0.27595    0.13518    0.13747    1.000
    N1391    N        0.24964    0.24855    0.15695    1.000
    Si1392   Si       0.27451    0.21794    0.13829    1.000
    Si1393   Si       0.24961    0.22310    0.24699    1.000
    N1394    N        0.25470    0.18011    0.25007    1.000
    Si1395   Si       0.26194    0.04660    0.29801    1.000
    N1396    N        0.24863    0.08180    0.31828    1.000
    Si1397   Si       0.25339    0.12391    0.30495    1.000
    N1398    N        0.26775    0.05784    0.25394    1.000
    N1399    N        0.23057    0.11819    0.26695    1.000
    N1400    N        0.26235    0.13062    0.34977    1.000
    Si1401   Si       0.27931    0.08836    0.34990    1.000
    N1402    N        0.25535    0.20166    0.34942    1.000
    N1403    N        0.24582    0.23238    0.28965    1.000
    Si1404   Si       0.27659    0.16794    0.36693    1.000
    Si1405   Si       0.26761    0.23727    0.37124    1.000
    Si1406   Si       0.28490    0.09952    0.42014    1.000
    N1407    N        0.23628    0.00689    0.38183    1.000
    N1408    N        0.27642    0.07027    0.38882    1.000
    N1409    N        0.23144    0.04655    0.43224    1.000
    Si1410   Si       0.26495    0.03291    0.40653    1.000
    N1411    N        0.24982    0.11599    0.43792    1.000
    Si1412   Si       0.22832    0.02177    0.46830    1.000
    Si1413   Si       0.27861    0.07079    0.49042    1.000
    N1414    N        0.25006    0.17718    0.47835    1.000
    N1415    N        0.27739    0.17231    0.40980    1.000
    N1416    N        0.24287    0.23513    0.40700    1.000
    Si1417   Si       0.23497    0.21526    0.48834    1.000
    Si1418   Si       0.24839    0.15988    0.43892    1.000
    N1419    N        0.25577    0.24853    0.47264    1.000
    Si1420   Si       0.25218    0.11649    0.54236    1.000
    N1421    N        0.27471    0.09147    0.56854    1.000
    N1422    N        0.27426    0.11164    0.50415    1.000
    Si1423   Si       0.28003    0.03342    0.61881    1.000
    N1424    N        0.23957    0.05248    0.49966    1.000
    N1425    N        0.22883    0.22165    0.53116    1.000
    N1426    N        0.25798    0.15911    0.54458    1.000
    Si1427   Si       0.24223    0.19551    0.56397    1.000
    Si1428   Si       0.28363    0.15352    0.50120    1.000
    N1429    N        0.28365    0.20719    0.57336    1.000
    N1430    N        0.23981    0.05049    0.61963    1.000
    N1431    N        0.26013    0.12289    0.63401    1.000
    Si1432   Si       0.26581    0.09371    0.70654    1.000
    Si1433   Si       0.23120    0.09006    0.63545    1.000
    N1434    N        0.23504    0.07953    0.67773    1.000
    N1435    N        0.26664    0.01220    0.72898    1.000
    N1436    N        0.25193    0.07380    0.74107    1.000
    Si1437   Si       0.23886    0.15900    0.72887    1.000
    N1438    N        0.25195    0.19253    0.66190    1.000
    Si1439   Si       0.27143    0.15375    0.66208    1.000
    N1440    N        0.26262    0.13597    0.70108    1.000
    Si1441   Si       0.26242    0.21880    0.69422    1.000
    N1442    N        0.24720    0.20067    0.73058    1.000
    N1443    N        0.25646    0.04343    0.85173    1.000
    Si1444   Si       0.24671    0.07020    0.81900    1.000
    Si1445   Si       0.27272    0.04065    0.76200    1.000
    N1446    N        0.23811    0.03716    0.79014    1.000
    N1447    N        0.23012    0.11117    0.82384    1.000
    Si1448   Si       0.26665    0.12890    0.80296    1.000
    N1449    N        0.25113    0.15526    0.77268    1.000
    Si1450   Si       0.24559    0.19786    0.77566    1.000
    N1451    N        0.27454    0.21596    0.80391    1.000
    Si1452   Si       0.22731    0.03045    0.88209    1.000
    Si1453   Si       0.25468    0.10532    0.91972    1.000
    Si1454   Si       0.25483    0.03067    0.94408    1.000
    N1455    N        0.23509    0.03490    0.98477    1.000
    N1456    N        0.24256    0.06166    0.91718    1.000
    N1457    N        0.25924    0.12746    0.88168    1.000
    N1458    N        0.25676    0.09915    0.99243    1.000
    N1459    N        0.25671    0.23646    0.88741    1.000
    Si1460   Si       0.24397    0.19488    0.97721    1.000
    N1461    N        0.27782    0.20173    0.95007    1.000
    Si1462   Si       0.22566    0.20604    0.88172    1.000
    N1463    N        0.22931    0.15754    0.99174    1.000
    N1464    N        0.26620    0.36395    0.06457    1.000
    Si1465   Si       0.23813    0.35830    0.03054    1.000
    N1466    N        0.26618    0.30856    0.11281    1.000
    Si1467   Si       0.27754    0.35336    0.10363    1.000
    N1468    N        0.26533    0.34032    0.00190    1.000
    N1469    N        0.28006    0.28004    0.03785    1.000
    Si1470   Si       0.28127    0.27798    0.08334    1.000
    N1471    N        0.23793    0.49674    0.10076    1.000
    Si1472   Si       0.26022    0.47177    0.03036    1.000
    N1473    N        0.22481    0.45393    0.04854    1.000
    N1474    N        0.27701    0.30841    0.18271    1.000
    N1475    N        0.26007    0.35530    0.22934    1.000
    Si1476   Si       0.25013    0.32409    0.15042    1.000
    N1477    N        0.25192    0.36771    0.13756    1.000
    Si1478   Si       0.27998    0.26649    0.18478    1.000
    N1479    N        0.23204    0.48498    0.16857    1.000
    Si1480   Si       0.24257    0.39553    0.23097    1.000
    N1481    N        0.27166    0.43467    0.13471    1.000
    N1482    N        0.23642    0.47974    0.22940    1.000
    N1483    N        0.23915    0.41650    0.19306    1.000
    Si1484   Si       0.23992    0.40736    0.15078    1.000
    Si1485   Si       0.23802    0.46642    0.13015    1.000
    Si1486   Si       0.25119    0.51076    0.20309    1.000
    N1487    N        0.26002    0.30568    0.28967    1.000
    N1488    N        0.25511    0.35046    0.35740    1.000
    N1489    N        0.25182    0.27027    0.34776    1.000
    Si1490   Si       0.26592    0.26683    0.30741    1.000
    Si1491   Si       0.22478    0.37137    0.33486    1.000
    N1492    N        0.24932    0.40712    0.33285    1.000
    Si1493   Si       0.24700    0.45092    0.33665    1.000
    Si1494   Si       0.25463    0.46592    0.26464    1.000
    N1495    N        0.26325    0.42205    0.25922    1.000
    N1496    N        0.23037    0.47019    0.30104    1.000
    Si1497   Si       0.27550    0.38780    0.36494    1.000
    Si1498   Si       0.25822    0.30947    0.37342    1.000
    N1499    N        0.26385    0.29910    0.41659    1.000
    Si1500   Si       0.23908    0.26819    0.43638    1.000
    Si1501   Si       0.25929    0.49833    0.44357    1.000
    N1502    N        0.26215    0.40201    0.47345    1.000
    Si1503   Si       0.24123    0.44074    0.48390    1.000
    N1504    N        0.24356    0.45891    0.44454    1.000
    Si1505   Si       0.23077    0.43690    0.41022    1.000
    N1506    N        0.26390    0.40820    0.40052    1.000
    Si1507   Si       0.25759    0.29343    0.60935    1.000
    Si1508   Si       0.26462    0.35649    0.55435    1.000
    N1509    N        0.26257    0.33235    0.58948    1.000
    N1510    N        0.24806    0.26320    0.58117    1.000
    N1511    N        0.26842    0.33949    0.51375    1.000
    N1512    N        0.23484    0.38417    0.53880    1.000
    Si1513   Si       0.24205    0.37171    0.49762    1.000
    Si1514   Si       0.27095    0.43536    0.60021    1.000
    N1515    N        0.26058    0.46859    0.50725    1.000
    Si1516   Si       0.23485    0.50047    0.60531    1.000
    N1517    N        0.23137    0.41934    0.59826    1.000
    Si1518   Si       0.27736    0.48409    0.54334    1.000
    N1519    N        0.24720    0.50660    0.56414    1.000
    N1520    N        0.24843    0.36563    0.64708    1.000
    N1521    N        0.25985    0.31834    0.71827    1.000
    Si1522   Si       0.24699    0.27918    0.73379    1.000
    Si1523   Si       0.24635    0.35254    0.74080    1.000
    Si1524   Si       0.27734    0.29619    0.68206    1.000
    N1525    N        0.25187    0.26209    0.69265    1.000
    N1526    N        0.22315    0.37737    0.71335    1.000
    N1527    N        0.26608    0.47343    0.62056    1.000
    N1528    N        0.24676    0.44870    0.73598    1.000
    Si1529   Si       0.23566    0.46286    0.69528    1.000
    N1530    N        0.26047    0.49665    0.68286    1.000
    Si1531   Si       0.24549    0.39308    0.68042    1.000
    N1532    N        0.22780    0.43030    0.66700    1.000
    Si1533   Si       0.27897    0.41679    0.73643    1.000
    N1534    N        0.28328    0.40415    0.69715    1.000
    Si1535   Si       0.24367    0.32189    0.80986    1.000
    N1536    N        0.24968    0.27996    0.82626    1.000
    N1537    N        0.28010    0.26244    0.75593    1.000
    Si1538   Si       0.27675    0.25897    0.80027    1.000
    Si1539   Si       0.22908    0.38324    0.85288    1.000
    N1540    N        0.27008    0.38296    0.76014    1.000
    N1541    N        0.26797    0.39267    0.83269    1.000
    N1542    N        0.25272    0.46540    0.80374    1.000
    Si1543   Si       0.27228    0.46970    0.76615    1.000
    N1544    N        0.25515    0.49091    0.86781    1.000
    Si1545   Si       0.28012    0.48462    0.83221    1.000
    Si1546   Si       0.25371    0.27707    0.87041    1.000
    N1547    N        0.28308    0.35074    0.92319    1.000
    Si1548   Si       0.23506    0.41961    0.98612    1.000
    Si1549   Si       0.25931    0.45995    0.89879    1.000
    Si1550   Si       0.27027    0.48569    0.96374    1.000
    N1551    N        0.26877    0.41939    0.89117    1.000
    N1552    N        0.23052    0.50172    0.95715    1.000
    N1553    N        0.26373    0.39617    0.96257    1.000
    N1554    N        0.26311    0.45210    0.99067    1.000
    Si1555   Si       0.25912    0.38753    0.91967    1.000
    Si1556   Si       0.26153    0.55204    0.03938    1.000
    N1557    N        0.24933    0.56168    0.08006    1.000
    N1558    N        0.24185    0.58024    0.01403    1.000
    N1559    N        0.24378    0.51116    0.03291    1.000
    Si1560   Si       0.24967    0.53652    0.11605    1.000
    N1561    N        0.23783    0.63145    0.08288    1.000
    N1562    N        0.26834    0.74347    0.02392    1.000
    Si1563   Si       0.24037    0.73318    0.10014    1.000
    N1564    N        0.23759    0.67684    0.02893    1.000
    Si1565   Si       0.27368    0.70028    0.02612    1.000
    Si1566   Si       0.28024    0.64337    0.07889    1.000
    N1567    N        0.22415    0.56617    0.13388    1.000
    N1568    N        0.24147    0.61301    0.19155    1.000
    Si1569   Si       0.25872    0.58670    0.22112    1.000
    N1570    N        0.23740    0.55243    0.20518    1.000
    Si1571   Si       0.24586    0.65508    0.19587    1.000
    N1572    N        0.23186    0.66243    0.23680    1.000
    N1573    N        0.23406    0.74785    0.14099    1.000
    N1574    N        0.27262    0.72366    0.22797    1.000
    Si1575   Si       0.25148    0.57318    0.34315    1.000
    N1576    N        0.24636    0.53091    0.33735    1.000
    N1577    N        0.25851    0.59335    0.26475    1.000
    Si1578   Si       0.27309    0.50862    0.36120    1.000
    Si1579   Si       0.23720    0.68381    0.31816    1.000
    N1580    N        0.27263    0.65749    0.31004    1.000
    N1581    N        0.23541    0.71574    0.28719    1.000
    N1582    N        0.22930    0.69826    0.35808    1.000
    Si1583   Si       0.23826    0.70509    0.24576    1.000
    N1584    N        0.23114    0.52682    0.46073    1.000
    Si1585   Si       0.25269    0.56206    0.47531    1.000
    N1586    N        0.25024    0.58685    0.38372    1.000
    Si1587   Si       0.23891    0.62733    0.39716    1.000
    Si1588   Si       0.27694    0.55741    0.40277    1.000
    N1589    N        0.25887    0.51330    0.40239    1.000
    N1590    N        0.22584    0.59586    0.48670    1.000
    Si1591   Si       0.26769    0.69694    0.37950    1.000
    N1592    N        0.27854    0.71463    0.41748    1.000
    Si1593   Si       0.23840    0.63602    0.47566    1.000
    N1594    N        0.27346    0.65263    0.38770    1.000
    N1595    N        0.27538    0.66064    0.47439    1.000
    Si1596   Si       0.24501    0.54692    0.54970    1.000
    N1597    N        0.26955    0.54994    0.51410    1.000
    N1598    N        0.26710    0.57361    0.57518    1.000
    N1599    N        0.27687    0.62653    0.53221    1.000
    Si1600   Si       0.26686    0.56502    0.61835    1.000
    Si1601   Si       0.23664    0.64248    0.54094    1.000
    Si1602   Si       0.23398    0.68470    0.60270    1.000
    N1603    N        0.25456    0.67612    0.56780    1.000
    N1604    N        0.27339    0.74471    0.51647    1.000
    Si1605   Si       0.23081    0.75649    0.51938    1.000
    N1606    N        0.22739    0.75478    0.56226    1.000
    N1607    N        0.22945    0.54210    0.62045    1.000
    Si1608   Si       0.27042    0.52728    0.71174    1.000
    N1609    N        0.26736    0.60432    0.63168    1.000
    N1610    N        0.23440    0.55050    0.72204    1.000
    Si1611   Si       0.22227    0.63198    0.71359    1.000
    Si1612   Si       0.27458    0.64245    0.64906    1.000
    Si1613   Si       0.24930    0.72792    0.73499    1.000
    N1614    N        0.26541    0.68403    0.63521    1.000
    N1615    N        0.26749    0.72096    0.69544    1.000
    N1616    N        0.24813    0.64879    0.68413    1.000
    Si1617   Si       0.24691    0.69028    0.67400    1.000
    N1618    N        0.26911    0.75341    0.62970    1.000
    Si1619   Si       0.26745    0.56127    0.82847    1.000
    N1620    N        0.24511    0.56833    0.79073    1.000
    Si1621   Si       0.23339    0.61139    0.78618    1.000
    Si1622   Si       0.23410    0.53711    0.76267    1.000
    N1623    N        0.24108    0.56232    0.86361    1.000
    N1624    N        0.23998    0.62556    0.82590    1.000
    N1625    N        0.27120    0.51176    0.75266    1.000
    N1626    N        0.24892    0.62859    0.74756    1.000
    N1627    N        0.25889    0.68987    0.83032    1.000
    N1628    N        0.26597    0.70000    0.76335    1.000
    Si1629   Si       0.27558    0.64927    0.83086    1.000
    N1630    N        0.27314    0.75268    0.81361    1.000
    Si1631   Si       0.27948    0.65968    0.75571    1.000
    Si1632   Si       0.25225    0.58090    0.90304    1.000
    N1633    N        0.24842    0.57045    0.94657    1.000
    Si1634   Si       0.25902    0.59971    0.97768    1.000
    N1635    N        0.23271    0.61768    0.89461    1.000
    N1636    N        0.23049    0.70604    0.96791    1.000
    N1637    N        0.23610    0.63625    0.97012    1.000
    Si1638   Si       0.23203    0.64821    0.92617    1.000
    Si1639   Si       0.27105    0.70011    0.95211    1.000
    N1640    N        0.26784    0.67063    0.92036    1.000
    N1641    N        0.25244    0.80396    0.01892    1.000
    N1642    N        0.25460    0.84514    0.08017    1.000
    Si1643   Si       0.22985    0.76475    0.02808    1.000
    Si1644   Si       0.22922    0.82756    0.04983    1.000
    Si1645   Si       0.28307    0.87871    0.08380    1.000
    N1646    N        0.22570    0.76341    0.07198    1.000
    Si1647   Si       0.26727    0.94383    0.06139    1.000
    N1648    N        0.26370    0.90564    0.04120    1.000
    N1649    N        0.22683    0.95362    0.05707    1.000
    N1650    N        0.28219    0.92275    0.09674    1.000
    Si1651   Si       0.26547    0.82874    0.12047    1.000
    Si1652   Si       0.26758    0.76694    0.23374    1.000
    Si1653   Si       0.26077    0.82723    0.18852    1.000
    N1654    N        0.23865    0.83766    0.15282    1.000
    N1655    N        0.24103    0.84117    0.22497    1.000
    N1656    N        0.26388    0.78294    0.19384    1.000
    Si1657   Si       0.27187    0.76018    0.15665    1.000
    Si1658   Si       0.23497    0.87948    0.24240    1.000
    N1659    N        0.25100    0.91329    0.21957    1.000
    Si1660   Si       0.24830    0.91886    0.17687    1.000
    N1661    N        0.25392    0.96250    0.17551    1.000
    Si1662   Si       0.24265    0.00441    0.18571    1.000
    N1663    N        0.23871    0.78270    0.32003    1.000
    Si1664   Si       0.24663    0.86442    0.30832    1.000
    Si1665   Si       0.26953    0.79801    0.34542    1.000
    N1666    N        0.27473    0.83884    0.32989    1.000
    N1667    N        0.22716    0.77349    0.25285    1.000
    N1668    N        0.26000    0.89070    0.27622    1.000
    N1669    N        0.24305    0.95381    0.33278    1.000
    Si1670   Si       0.24181    0.96797    0.29143    1.000
    Si1671   Si       0.24350    0.91807    0.35645    1.000
    N1672    N        0.27707    0.95931    0.27044    1.000
    N1673    N        0.23941    0.01005    0.30589    1.000
    Si1674   Si       0.23424    0.78936    0.45882    1.000
    N1675    N        0.25900    0.78489    0.38725    1.000
    N1676    N        0.27689    0.78063    0.45339    1.000
    Si1677   Si       0.22488    0.86322    0.44993    1.000
    N1678    N        0.26366    0.88113    0.43936    1.000
    N1679    N        0.22249    0.82295    0.43288    1.000
    N1680    N        0.25640    0.99009    0.47663    1.000
    Si1681   Si       0.26491    0.91583    0.41277    1.000
    N1682    N        0.28303    0.90844    0.37419    1.000
    Si1683   Si       0.25129    0.77233    0.59560    1.000
    Si1684   Si       0.27020    0.88053    0.58407    1.000
    Si1685   Si       0.24660    0.88940    0.51164    1.000
    N1686    N        0.23761    0.88866    0.55517    1.000
    Si1687   Si       0.24199    0.93250    0.56599    1.000
    N1688    N        0.25726    0.96933    0.54441    1.000
    N1689    N        0.26025    0.99217    0.61408    1.000
    Si1690   Si       0.23471    0.96988    0.50695    1.000
    N1691    N        0.22614    0.92673    0.50273    1.000
    N1692    N        0.28003    0.92274    0.58596    1.000
    N1693    N        0.25630    0.86668    0.62325    1.000
    Si1694   Si       0.26249    0.77000    0.67291    1.000
    Si1695   Si       0.23576    0.83303    0.64183    1.000
    N1696    N        0.26518    0.81138    0.66457    1.000
    N1697    N        0.24861    0.77228    0.73663    1.000
    Si1698   Si       0.22668    0.00310    0.70955    1.000
    N1699    N        0.25968    0.88667    0.69779    1.000
    Si1700   Si       0.26845    0.97061    0.65277    1.000
    Si1701   Si       0.26965    0.89493    0.65458    1.000
    Si1702   Si       0.27727    0.91934    0.72467    1.000
    N1703    N        0.24487    0.93106    0.65042    1.000
    N1704    N        0.22723    0.98860    0.66816    1.000
    N1705    N        0.25708    0.85837    0.85703    1.000
    N1706    N        0.25410    0.87006    0.78878    1.000
    Si1707   Si       0.26449    0.83877    0.81965    1.000
    N1708    N        0.23971    0.80904    0.79736    1.000
    Si1709   Si       0.24492    0.83524    0.76209    1.000
    Si1710   Si       0.23450    0.77107    0.81636    1.000
    Si1711   Si       0.25757    0.91146    0.79418    1.000
    N1712    N        0.23273    0.92043    0.82959    1.000
    N1713    N        0.25270    0.93160    0.75624    1.000
    Si1714   Si       0.23505    0.99955    0.81585    1.000
    Si1715   Si       0.23709    0.89730    0.86661    1.000
    N1716    N        0.27869    0.98800    0.81862    1.000
    Si1717   Si       0.26450    0.77423    0.92219    1.000
    Si1718   Si       0.26156    0.83384    0.89095    1.000
    Si1719   Si       0.25784    0.82845    0.98219    1.000
    N1720    N        0.27595    0.80343    0.95055    1.000
    N1721    N        0.27865    0.79310    0.88461    1.000
    N1722    N        0.22325    0.76101    0.92547    1.000
    N1723    N        0.25531    0.95030    0.95500    1.000
    N1724    N        0.26090    0.92602    0.89173    1.000
    Si1725   Si       0.24189    0.95772    0.91320    1.000
    N1726    N        0.23838    0.00156    0.91435    1.000
    N1727    N        0.29082    0.04123    0.02309    1.000
    N1728    N        0.32752    0.09448    0.09305    1.000
    Si1729   Si       0.32058    0.05311    0.10081    1.000
    Si1730   Si       0.29754    0.01513    0.05624    1.000
    N1731    N        0.33875    0.02287    0.07419    1.000
    Si1732   Si       0.34546    0.13266    0.09319    1.000
    N1733    N        0.29951    0.23368    0.10520    1.000
    Si1734   Si       0.31089    0.16692    0.03770    1.000
    N1735    N        0.31879    0.16722    0.10839    1.000
    Si1736   Si       0.32955    0.20549    0.09049    1.000
    N1737    N        0.32888    0.20714    0.04705    1.000
    N1738    N        0.30387    0.16030    0.99557    1.000
    N1739    N        0.28480    0.01369    0.19688    1.000
    N1740    N        0.28495    0.12160    0.22457    1.000
    Si1741   Si       0.30061    0.03847    0.23100    1.000
    N1742    N        0.32733    0.06437    0.20823    1.000
    Si1743   Si       0.31002    0.10092    0.19506    1.000
    N1744    N        0.32472    0.04790    0.14342    1.000
    Si1745   Si       0.28596    0.04209    0.16126    1.000
    N1746    N        0.33555    0.12884    0.17178    1.000
    N1747    N        0.32158    0.25594    0.16575    1.000
    N1748    N        0.32261    0.18296    0.23632    1.000
    N1749    N        0.29685    0.19545    0.16847    1.000
    Si1750   Si       0.31026    0.15664    0.15303    1.000
    Si1751   Si       0.31245    0.21498    0.20516    1.000
    N1752    N        0.29776    0.04568    0.32198    1.000
    N1753    N        0.32362    0.09890    0.34381    1.000
    N1754    N        0.32575    0.01312    0.25692    1.000
    Si1755   Si       0.33738    0.06175    0.32508    1.000
    Si1756   Si       0.32148    0.13915    0.32140    1.000
    N1757    N        0.29257    0.13781    0.29115    1.000
    N1758    N        0.31588    0.17053    0.34971    1.000
    Si1759   Si       0.29112    0.15537    0.25068    1.000
    Si1760   Si       0.33474    0.20429    0.36975    1.000
    N1761    N        0.29917    0.07192    0.44989    1.000
    N1762    N        0.32000    0.12167    0.41097    1.000
    Si1763   Si       0.32687    0.04268    0.43420    1.000
    N1764    N        0.29808    0.01053    0.42524    1.000
    N1765    N        0.33077    0.22881    0.49495    1.000
    Si1766   Si       0.31470    0.16154    0.42556    1.000
    N1767    N        0.30932    0.16307    0.46631    1.000
    N1768    N        0.31104    0.23866    0.37721    1.000
    Si1769   Si       0.30561    0.06326    0.55525    1.000
    N1770    N        0.31049    0.05505    0.51425    1.000
    N1771    N        0.29303    0.02681    0.57448    1.000
    Si1772   Si       0.28871    0.10472    0.60698    1.000
    N1773    N        0.31227    0.13922    0.59340    1.000
    N1774    N        0.31896    0.16676    0.52550    1.000
    Si1775   Si       0.31000    0.17260    0.56622    1.000
    N1776    N        0.33268    0.24892    0.56934    1.000
    Si1777   Si       0.28874    0.24967    0.56636    1.000
    N1778    N        0.30814    0.06966    0.62430    1.000
    N1779    N        0.29235    0.02098    0.66436    1.000
    Si1780   Si       0.31676    0.05637    0.66573    1.000
    N1781    N        0.30851    0.08377    0.69875    1.000
    N1782    N        0.33936    0.00980    0.71378    1.000
    N1783    N        0.31433    0.16477    0.65463    1.000
    N1784    N        0.30534    0.22218    0.69859    1.000
    N1785    N        0.33830    0.23135    0.64146    1.000
    Si1786   Si       0.33383    0.20042    0.67154    1.000
    Si1787   Si       0.31205    0.23811    0.73896    1.000
    Si1788   Si       0.32050    0.06741    0.80325    1.000
    N1789    N        0.31427    0.03750    0.77256    1.000
    N1790    N        0.32475    0.04364    0.83889    1.000
    Si1791   Si       0.29113    0.01616    0.84697    1.000
    N1792    N        0.28312    0.08803    0.80317    1.000
    N1793    N        0.29533    0.15491    0.82318    1.000
    Si1794   Si       0.31018    0.19140    0.80585    1.000
    N1795    N        0.31933    0.19992    0.76346    1.000
    Si1796   Si       0.29615    0.15031    0.86820    1.000
    N1797    N        0.32672    0.12085    0.87456    1.000
    Si1798   Si       0.32949    0.10148    0.91492    1.000
    N1799    N        0.29628    0.03483    0.95648    1.000
    Si1800   Si       0.31920    0.02247    0.92083    1.000
    N1801    N        0.29435    0.11308    0.93672    1.000
    Si1802   Si       0.29505    0.12065    0.98150    1.000
    N1803    N        0.33428    0.05986    0.90554    1.000
    Si1804   Si       0.31935    0.05151    0.99082    1.000
    N1805    N        0.32655    0.09512    0.99461    1.000
    N1806    N        0.31717    0.25128    0.92419    1.000
    N1807    N        0.32863    0.23447    0.98776    1.000
    Si1808   Si       0.28901    0.21925    0.91322    1.000
    N1809    N        0.30252    0.18888    0.88514    1.000
    Si1810   Si       0.31439    0.19537    0.97192    1.000
    N1811    N        0.33121    0.33115    0.03259    1.000
    N1812    N        0.32343    0.28820    0.09050    1.000
    Si1813   Si       0.33294    0.37465    0.02171    1.000
    Si1814   Si       0.29654    0.31079    0.01344    1.000
    N1815    N        0.31442    0.37076    0.11528    1.000
    N1816    N        0.30165    0.47761    0.03954    1.000
    N1817    N        0.30855    0.41171    0.02650    1.000
    Si1818   Si       0.32616    0.44435    0.04973    1.000
    N1819    N        0.33056    0.43928    0.09224    1.000
    N1820    N        0.31949    0.36025    0.18701    1.000
    Si1821   Si       0.29512    0.33577    0.21365    1.000
    N1822    N        0.31635    0.30709    0.24130    1.000
    Si1823   Si       0.33901    0.36918    0.14971    1.000
    Si1824   Si       0.33524    0.26083    0.12218    1.000
    N1825    N        0.29426    0.50984    0.20400    1.000
    N1826    N        0.33668    0.48030    0.14903    1.000
    N1827    N        0.33832    0.41193    0.15850    1.000
    Si1828   Si       0.30927    0.41519    0.12269    1.000
    N1829    N        0.32704    0.43388    0.22668    1.000
    Si1830   Si       0.33605    0.39376    0.20782    1.000
    Si1831   Si       0.30239    0.30530    0.28364    1.000
    N1832    N        0.32495    0.33464    0.30480    1.000
    Si1833   Si       0.32696    0.34133    0.34879    1.000
    N1834    N        0.31006    0.26631    0.30188    1.000
    N1835    N        0.30472    0.30869    0.36521    1.000
    N1836    N        0.31670    0.38204    0.36057    1.000
    N1837    N        0.32312    0.37753    0.25050    1.000
    Si1838   Si       0.30677    0.41507    0.26205    1.000
    Si1839   Si       0.31243    0.47258    0.30779    1.000
    N1840    N        0.32448    0.43179    0.29635    1.000
    N1841    N        0.29359    0.48615    0.27043    1.000
    N1842    N        0.28459    0.47109    0.34148    1.000
    N1843    N        0.34323    0.50220    0.31744    1.000
    Si1844   Si       0.29577    0.25679    0.48871    1.000
    Si1845   Si       0.33270    0.27531    0.37819    1.000
    N1846    N        0.29982    0.35705    0.43191    1.000
    N1847    N        0.30340    0.29764    0.47297    1.000
    Si1848   Si       0.30405    0.31219    0.43357    1.000
    N1849    N        0.33903    0.29248    0.41755    1.000
    N1850    N        0.30139    0.49773    0.45449    1.000
    N1851    N        0.31918    0.42356    0.44044    1.000
    Si1852   Si       0.28411    0.39572    0.43668    1.000
    Si1853   Si       0.32584    0.46170    0.46189    1.000
    Si1854   Si       0.30191    0.31139    0.51354    1.000
    N1855    N        0.30114    0.37583    0.57099    1.000
    N1856    N        0.29067    0.27246    0.53018    1.000
    N1857    N        0.33632    0.32996    0.53263    1.000
    Si1858   Si       0.28231    0.36627    0.61691    1.000
    Si1859   Si       0.33919    0.36363    0.56177    1.000
    Si1860   Si       0.32945    0.43627    0.54703    1.000
    N1861    N        0.29111    0.45000    0.56405    1.000
    N1862    N        0.33158    0.44741    0.50380    1.000
    N1863    N        0.28939    0.28587    0.63865    1.000
    N1864    N        0.31554    0.35400    0.64559    1.000
    Si1865   Si       0.32873    0.27296    0.65404    1.000
    N1866    N        0.31855    0.28882    0.69439    1.000
    N1867    N        0.33093    0.48970    0.65334    1.000
    Si1868   Si       0.31099    0.39810    0.66287    1.000
    N1869    N        0.29350    0.40952    0.62598    1.000
    Si1870   Si       0.28785    0.49642    0.64994    1.000
    Si1871   Si       0.32078    0.30863    0.79584    1.000
    N1872    N        0.31825    0.26777    0.80920    1.000
    Si1873   Si       0.28848    0.37658    0.79936    1.000
    N1874    N        0.33782    0.31697    0.75782    1.000
    N1875    N        0.28567    0.33375    0.80383    1.000
    N1876    N        0.33243    0.38390    0.78976    1.000
    N1877    N        0.30923    0.45353    0.84387    1.000
    Si1878   Si       0.29733    0.41277    0.86031    1.000
    N1879    N        0.30623    0.44538    0.75515    1.000
    N1880    N        0.33667    0.50546    0.77385    1.000
    Si1881   Si       0.34428    0.46455    0.75732    1.000
    N1882    N        0.32115    0.37730    0.87085    1.000
    Si1883   Si       0.32893    0.27058    0.96110    1.000
    N1884    N        0.32485    0.37391    0.97808    1.000
    Si1885   Si       0.30829    0.33936    0.89093    1.000
    Si1886   Si       0.32905    0.27998    0.89232    1.000
    N1887    N        0.30515    0.30416    0.97277    1.000
    N1888    N        0.29057    0.29852    0.87924    1.000
    Si1889   Si       0.29216    0.34756    0.96539    1.000
    N1890    N        0.32956    0.43319    0.95903    1.000
    N1891    N        0.28962    0.47588    0.92760    1.000
    Si1892   Si       0.29730    0.41513    0.98412    1.000
    Si1893   Si       0.33151    0.46981    0.93566    1.000
    Si1894   Si       0.32395    0.57935    0.06356    1.000
    N1895    N        0.29968    0.61572    0.05280    1.000
    N1896    N        0.30401    0.54902    0.04386    1.000
    Si1897   Si       0.32141    0.62093    0.01513    1.000
    Si1898   Si       0.31580    0.51385    0.02134    1.000
    Si1899   Si       0.30524    0.69732    0.09854    1.000
    N1900    N        0.29163    0.68219    0.06126    1.000
    N1901    N        0.29440    0.65964    0.11806    1.000
    N1902    N        0.28508    0.73462    0.10072    1.000
    N1903    N        0.29956    0.58629    0.21273    1.000
    Si1904   Si       0.33286    0.58666    0.18554    1.000
    N1905    N        0.33661    0.61249    0.15175    1.000
    Si1906   Si       0.31432    0.51337    0.16373    1.000
    N1907    N        0.28553    0.52887    0.13696    1.000
    Si1908   Si       0.31595    0.51003    0.24150    1.000
    Si1909   Si       0.32745    0.58641    0.24848    1.000
    N1910    N        0.28827    0.66524    0.19020    1.000
    N1911    N        0.30526    0.73221    0.16705    1.000
    Si1912   Si       0.31435    0.65081    0.15798    1.000
    Si1913   Si       0.30519    0.70525    0.20353    1.000
    Si1914   Si       0.34171    0.71890    0.15035    1.000
    Si1915   Si       0.32206    0.57754    0.35370    1.000
    N1916    N        0.32364    0.62028    0.27327    1.000
    N1917    N        0.32592    0.54821    0.26507    1.000
    N1918    N        0.28948    0.59296    0.32929    1.000
    N1919    N        0.30249    0.54308    0.36939    1.000
    Si1920   Si       0.28364    0.61769    0.29478    1.000
    N1921    N        0.33791    0.68583    0.29092    1.000
    Si1922   Si       0.30931    0.67902    0.32544    1.000
    N1923    N        0.33351    0.66119    0.35678    1.000
    N1924    N        0.29302    0.71213    0.34672    1.000
    N1925    N        0.32978    0.60129    0.38905    1.000
    Si1926   Si       0.32052    0.53821    0.45358    1.000
    N1927    N        0.33717    0.55105    0.49074    1.000
    N1928    N        0.33720    0.62620    0.49350    1.000
    N1929    N        0.28490    0.56264    0.44326    1.000
    Si1930   Si       0.29857    0.68640    0.44309    1.000
    Si1931   Si       0.31545    0.64107    0.39054    1.000
    N1932    N        0.32549    0.65480    0.42946    1.000
    N1933    N        0.32362    0.70938    0.47051    1.000
    Si1934   Si       0.31138    0.54484    0.52614    1.000
    N1935    N        0.32846    0.58019    0.54864    1.000
    Si1936   Si       0.29615    0.60329    0.56383    1.000
    N1937    N        0.31490    0.50904    0.54804    1.000
    N1938    N        0.31183    0.63779    0.58816    1.000
    N1939    N        0.31290    0.71021    0.58993    1.000
    N1940    N        0.31188    0.68228    0.52943    1.000
    Si1941   Si       0.29676    0.67506    0.57047    1.000
    Si1942   Si       0.30900    0.72126    0.51029    1.000
    N1943    N        0.33334    0.75080    0.53337    1.000
    Si1944   Si       0.30314    0.64825    0.50448    1.000
    Si1945   Si       0.33960    0.64136    0.62040    1.000
    N1946    N        0.29700    0.53872    0.63266    1.000
    N1947    N        0.30587    0.54960    0.70636    1.000
    Si1948   Si       0.33388    0.57358    0.72919    1.000
    Si1949   Si       0.33975    0.53020    0.63945    1.000
    N1950    N        0.30911    0.66043    0.72550    1.000
    N1951    N        0.31769    0.64772    0.65765    1.000
    Si1952   Si       0.29332    0.71734    0.62642    1.000
    Si1953   Si       0.33749    0.64543    0.69681    1.000
    N1954    N        0.32347    0.71730    0.65644    1.000
    Si1955   Si       0.31115    0.73035    0.69526    1.000
    N1956    N        0.30212    0.58855    0.83361    1.000
    Si1957   Si       0.30247    0.53220    0.77867    1.000
    Si1958   Si       0.31534    0.60683    0.79572    1.000
    N1959    N        0.31283    0.57335    0.76902    1.000
    N1960    N        0.28683    0.52419    0.81798    1.000
    Si1961   Si       0.31743    0.60564    0.87073    1.000
    N1962    N        0.29346    0.64252    0.79106    1.000
    N1963    N        0.32377    0.70411    0.81319    1.000
    N1964    N        0.30207    0.64591    0.86335    1.000
    Si1965   Si       0.33456    0.71771    0.85317    1.000
    Si1966   Si       0.28356    0.71276    0.80222    1.000
    N1967    N        0.29540    0.58806    0.90321    1.000
    N1968    N        0.30137    0.60744    0.97911    1.000
    Si1969   Si       0.31925    0.59927    0.93954    1.000
    N1970    N        0.29805    0.51306    0.98190    1.000
    Si1971   Si       0.32540    0.73057    0.92532    1.000
    N1972    N        0.29455    0.69145    0.98850    1.000
    N1973    N        0.28308    0.73764    0.93612    1.000
    Si1974   Si       0.30625    0.66355    0.90192    1.000
    N1975    N        0.32444    0.70360    0.89176    1.000
    N1976    N        0.33300    0.63773    0.92465    1.000
    Si1977   Si       0.33894    0.69321    0.99261    1.000
    N1978    N        0.30898    0.78885    0.06045    1.000
    Si1979   Si       0.30825    0.77190    0.09982    1.000
    N1980    N        0.31684    0.87324    0.05878    1.000
    Si1981   Si       0.29008    0.78141    0.02256    1.000
    N1982    N        0.32401    0.78345    0.99266    1.000
    Si1983   Si       0.29756    0.88488    0.02020    1.000
    N1984    N        0.29609    0.97416    0.05175    1.000
    Si1985   Si       0.32713    0.95419    0.02861    1.000
    N1986    N        0.32522    0.91494    0.00956    1.000
    N1987    N        0.28365    0.79227    0.12793    1.000
    N1988    N        0.29834    0.85817    0.12198    1.000
    N1989    N        0.30069    0.84327    0.19356    1.000
    Si1990   Si       0.32931    0.86334    0.22099    1.000
    Si1991   Si       0.31156    0.87144    0.16014    1.000
    Si1992   Si       0.29673    0.97177    0.18562    1.000
    N1993    N        0.31157    0.95179    0.22054    1.000
    N1994    N        0.28712    0.90769    0.16229    1.000
    Si1995   Si       0.30820    0.92778    0.13109    1.000
    N1996    N        0.31907    0.96709    0.14822    1.000
    Si1997   Si       0.31813    0.84804    0.33304    1.000
    Si1998   Si       0.32395    0.78674    0.29317    1.000
    N1999    N        0.30677    0.78044    0.33381    1.000
    N2000    N        0.29881    0.78542    0.25875    1.000
    N2001    N        0.33856    0.82629    0.30023    1.000
    Si2002   Si       0.33306    0.78762    0.36618    1.000
    N2003    N        0.32552    0.83035    0.37069    1.000
    N2004    N        0.31985    0.89071    0.25302    1.000
    N2005    N        0.32868    0.89011    0.32776    1.000
    Si2006   Si       0.31849    0.97076    0.25879    1.000
    Si2007   Si       0.32519    0.91098    0.36665    1.000
    Si2008   Si       0.28432    0.91893    0.24959    1.000
    Si2009   Si       0.34134    0.90371    0.28935    1.000
    Si2010   Si       0.31003    0.80292    0.46876    1.000
    N2011    N        0.31851    0.84155    0.44756    1.000
    N2012    N        0.32249    0.76898    0.40129    1.000
    Si2013   Si       0.30518    0.88062    0.46250    1.000
    Si2014   Si       0.34033    0.84463    0.40999    1.000
    Si2015   Si       0.28286    0.75858    0.41492    1.000
    N2016    N        0.29005    0.94139    0.43413    1.000
    N2017    N        0.32118    0.97186    0.48690    1.000
    Si2018   Si       0.29443    0.97777    0.45517    1.000
    N2019    N        0.34396    0.88744    0.40133    1.000
    N2020    N        0.30882    0.80857    0.51305    1.000
    Si2021   Si       0.31287    0.84933    0.52469    1.000
    Si2022   Si       0.31266    0.82224    0.59062    1.000
    N2023    N        0.29703    0.85310    0.56609    1.000
    Si2024   Si       0.29752    0.77436    0.53690    1.000
    N2025    N        0.28876    0.78706    0.57778    1.000
    N2026    N        0.28715    0.87709    0.50213    1.000
    Si2027   Si       0.31792    0.93664    0.60061    1.000
    N2028    N        0.32434    0.96965    0.57580    1.000
    Si2029   Si       0.28358    0.98481    0.57425    1.000
    N2030    N        0.33355    0.84017    0.69309    1.000
    N2031    N        0.30227    0.77429    0.69549    1.000
    N2032    N        0.31712    0.83310    0.63117    1.000
    Si2033   Si       0.31373    0.80737    0.66897    1.000
    Si2034   Si       0.31606    0.85684    0.73172    1.000
    Si2035   Si       0.28970    0.78730    0.73571    1.000
    N2036    N        0.28338    0.82997    0.74321    1.000
    Si2037   Si       0.29934    0.99829    0.70322    1.000
    Si2038   Si       0.32354    0.93585    0.67330    1.000
    N2039    N        0.31373    0.90231    0.73563    1.000
    N2040    N        0.30872    0.95664    0.63939    1.000
    N2041    N        0.31319    0.89608    0.65805    1.000
    N2042    N        0.29032    0.95596    0.69811    1.000
    N2043    N        0.30509    0.81909    0.81852    1.000
    Si2044   Si       0.30959    0.77597    0.81189    1.000
    N2045    N        0.31487    0.76978    0.76688    1.000
    N2046    N        0.32859    0.76019    0.84847    1.000
    Si2047   Si       0.30730    0.95833    0.80151    1.000
    N2048    N        0.29656    0.91792    0.81048    1.000
    N2049    N        0.33049    0.96674    0.76399    1.000
    Si2050   Si       0.33056    0.91032    0.83524    1.000
    Si2051   Si       0.32141    0.79029    0.87932    1.000
    Si2052   Si       0.31001    0.86507    0.95076    1.000
    Si2053   Si       0.31882    0.79750    0.95288    1.000
    N2054    N        0.33394    0.77367    0.91885    1.000
    N2055    N        0.28835    0.85749    0.98766    1.000
    N2056    N        0.34008    0.83583    0.94366    1.000
    N2057    N        0.28427    0.86331    0.91583    1.000
    Si2058   Si       0.29561    0.90467    0.90715    1.000
    Si2059   Si       0.33876    0.93298    0.97172    1.000
    N2060    N        0.32858    0.90541    0.87987    1.000
    N2061    N        0.33340    0.97357    0.98907    1.000
    N2062    N        0.30177    0.00320    0.88623    1.000
    N2063    N        0.32461    0.90523    0.94084    1.000
    N2064    N        0.38403    0.08464    0.04246    1.000
    Si2065   Si       0.35947    0.11129    0.01837    1.000
    Si2066   Si       0.39191    0.04772    0.02099    1.000
    N2067    N        0.38133    0.13601    0.11596    1.000
    N2068    N        0.39279    0.21023    0.00439    1.000
    Si2069   Si       0.35416    0.23148    0.02286    1.000
    N2070    N        0.36422    0.22341    0.11001    1.000
    N2071    N        0.34521    0.13982    0.04840    1.000
    Si2072   Si       0.39871    0.08266    0.21675    1.000
    Si2073   Si       0.37713    0.12460    0.16199    1.000
    N2074    N        0.38236    0.08444    0.17693    1.000
    N2075    N        0.38840    0.04275    0.22935    1.000
    Si2076   Si       0.35354    0.05211    0.17467    1.000
    N2077    N        0.38569    0.11586    0.24467    1.000
    N2078    N        0.36997    0.00929    0.17512    1.000
    Si2079   Si       0.39767    0.24197    0.13022    1.000
    N2080    N        0.39517    0.22969    0.17406    1.000
    N2081    N        0.34786    0.24217    0.22274    1.000
    N2082    N        0.39221    0.18871    0.24380    1.000
    Si2083   Si       0.38101    0.10529    0.28647    1.000
    N2084    N        0.35719    0.06948    0.28867    1.000
    N2085    N        0.36752    0.03554    0.34413    1.000
    Si2086   Si       0.36419    0.03471    0.26400    1.000
    Si2087   Si       0.40007    0.01578    0.32547    1.000
    N2088    N        0.36171    0.13988    0.30437    1.000
    Si2089   Si       0.37639    0.17903    0.31269    1.000
    N2090    N        0.37446    0.19999    0.35142    1.000
    N2091    N        0.35474    0.21314    0.29374    1.000
    Si2092   Si       0.39364    0.23699    0.36265    1.000
    Si2093   Si       0.35184    0.25371    0.30802    1.000
    Si2094   Si       0.35468    0.20888    0.25119    1.000
    N2095    N        0.38417    0.11525    0.37578    1.000
    Si2096   Si       0.38146    0.03857    0.38413    1.000
    N2097    N        0.34851    0.06111    0.40212    1.000
    N2098    N        0.35381    0.02734    0.46357    1.000
    Si2099   Si       0.39050    0.00894    0.44771    1.000
    Si2100   Si       0.34564    0.10000    0.38345    1.000
    N2101    N        0.40228    0.23036    0.40447    1.000
    N2102    N        0.37646    0.18229    0.46499    1.000
    Si2103   Si       0.38531    0.19263    0.42104    1.000
    N2104    N        0.34361    0.18876    0.40943    1.000
    Si2105   Si       0.34071    0.18592    0.49124    1.000
    Si2106   Si       0.38371    0.09026    0.54596    1.000
    N2107    N        0.36284    0.02554    0.60330    1.000
    Si2108   Si       0.35023    0.06727    0.60767    1.000
    Si2109   Si       0.34977    0.04128    0.50574    1.000
    N2110    N        0.38044    0.07130    0.50577    1.000
    N2111    N        0.34680    0.07798    0.56492    1.000
    N2112    N        0.35850    0.00733    0.53006    1.000
    N2113    N        0.39325    0.13503    0.54174    1.000
    N2114    N        0.37950    0.20292    0.52680    1.000
    N2115    N        0.34932    0.18456    0.58596    1.000
    Si2116   Si       0.35409    0.22477    0.60146    1.000
    Si2117   Si       0.38343    0.17404    0.55861    1.000
    Si2118   Si       0.35253    0.24047    0.53137    1.000
    N2119    N        0.39532    0.24598    0.60021    1.000
    Si2120   Si       0.34562    0.15053    0.62297    1.000
    N2121    N        0.36436    0.10561    0.62208    1.000
    N2122    N        0.37153    0.11836    0.68987    1.000
    Si2123   Si       0.37433    0.02172    0.68935    1.000
    Si2124   Si       0.38533    0.09094    0.65940    1.000
    N2125    N        0.36108    0.05489    0.66437    1.000
    N2126    N        0.37027    0.07804    0.74589    1.000
    Si2127   Si       0.34230    0.10333    0.71941    1.000
    N2128    N        0.38094    0.16777    0.64400    1.000
    N2129    N        0.36226    0.18800    0.70204    1.000
    Si2130   Si       0.38855    0.15917    0.68684    1.000
    N2131    N        0.35189    0.25495    0.74427    1.000
    Si2132   Si       0.35244    0.17916    0.74554    1.000
    Si2133   Si       0.37163    0.11269    0.77261    1.000
    Si2134   Si       0.35912    0.10875    0.84970    1.000
    N2135    N        0.35048    0.09672    0.80754    1.000
    N2136    N        0.38374    0.01323    0.77181    1.000
    N2137    N        0.37508    0.01189    0.86963    1.000
    Si2138   Si       0.34277    0.00878    0.75736    1.000
    Si2139   Si       0.35477    0.04778    0.86952    1.000
    N2140    N        0.34345    0.13736    0.74856    1.000
    N2141    N        0.38346    0.14134    0.84133    1.000
    Si2142   Si       0.38754    0.23927    0.76213    1.000
    N2143    N        0.38778    0.19680    0.76203    1.000
    Si2144   Si       0.38198    0.18441    0.84157    1.000
    Si2145   Si       0.35309    0.24787    0.82476    1.000
    N2146    N        0.34793    0.20551    0.82558    1.000
    N2147    N        0.38907    0.25649    0.80278    1.000
    N2148    N        0.38431    0.08152    0.87323    1.000
    Si2149   Si       0.39669    0.08258    0.91631    1.000
    N2150    N        0.36850    0.11524    0.92933    1.000
    N2151    N        0.39292    0.12550    0.99188    1.000
    N2152    N        0.35967    0.03668    0.99360    1.000
    Si2153   Si       0.38618    0.20955    0.96066    1.000
    N2154    N        0.38884    0.19645    0.88316    1.000
    Si2155   Si       0.38878    0.23972    0.88885    1.000
    Si2156   Si       0.38064    0.14640    0.95593    1.000
    N2157    N        0.35151    0.18064    0.95412    1.000
    N2158    N        0.39572    0.23919    0.93186    1.000
    N2159    N        0.37803    0.32533    0.08578    1.000
    N2160    N        0.36613    0.27109    0.03572    1.000
    Si2161   Si       0.39054    0.29118    0.00563    1.000
    Si2162   Si       0.39365    0.35467    0.05812    1.000
    Si2163   Si       0.35098    0.30372    0.06155    1.000
    N2164    N        0.40214    0.32866    0.02368    1.000
    N2165    N        0.36912    0.38808    0.04342    1.000
    Si2166   Si       0.38863    0.42159    0.02298    1.000
    N2167    N        0.36613    0.45523    0.03247    1.000
    Si2168   Si       0.37863    0.49478    0.03990    1.000
    Si2169   Si       0.35420    0.47021    0.10936    1.000
    N2170    N        0.36250    0.49952    0.07999    1.000
    Si2171   Si       0.38909    0.31774    0.12710    1.000
    N2172    N        0.37314    0.27834    0.13698    1.000
    Si2173   Si       0.38644    0.33903    0.20258    1.000
    N2174    N        0.37236    0.29687    0.20136    1.000
    N2175    N        0.37645    0.34774    0.15475    1.000
    Si2176   Si       0.35515    0.28559    0.23875    1.000
    Si2177   Si       0.36238    0.25941    0.18151    1.000
    N2178    N        0.38755    0.45024    0.12698    1.000
    Si2179   Si       0.36430    0.45284    0.23472    1.000
    N2180    N        0.38642    0.44697    0.19756    1.000
    N2181    N        0.37842    0.38285    0.20871    1.000
    Si2182   Si       0.36108    0.44930    0.16250    1.000
    N2183    N        0.35748    0.49510    0.24094    1.000
    N2184    N        0.37398    0.27458    0.27551    1.000
    N2185    N        0.37056    0.33921    0.35925    1.000
    Si2186   Si       0.34921    0.35345    0.27358    1.000
    N2187    N        0.37945    0.33298    0.25066    1.000
    N2188    N        0.36395    0.26515    0.34945    1.000
    Si2189   Si       0.39593    0.35222    0.32514    1.000
    N2190    N        0.37218    0.37960    0.29965    1.000
    N2191    N        0.39043    0.43924    0.26683    1.000
    Si2192   Si       0.36650    0.48287    0.34696    1.000
    Si2193   Si       0.36626    0.42168    0.29789    1.000
    N2194    N        0.37791    0.44216    0.33472    1.000
    Si2195   Si       0.37228    0.31029    0.43695    1.000
    N2196    N        0.37791    0.32606    0.47957    1.000
    N2197    N        0.37005    0.35499    0.42508    1.000
    Si2198   Si       0.39204    0.36516    0.38681    1.000
    Si2199   Si       0.39146    0.36281    0.46326    1.000
    N2200    N        0.38093    0.40715    0.39507    1.000
    Si2201   Si       0.38568    0.49178    0.49276    1.000
    N2202    N        0.37170    0.39874    0.46807    1.000
    Si2203   Si       0.35149    0.39730    0.42949    1.000
    N2204    N        0.35359    0.48668    0.38692    1.000
    N2205    N        0.36428    0.48261    0.45465    1.000
    Si2206   Si       0.37422    0.31525    0.52061    1.000
    N2207    N        0.38247    0.27282    0.52615    1.000
    N2208    N        0.36426    0.34993    0.59399    1.000
    N2209    N        0.35865    0.45953    0.57073    1.000
    N2210    N        0.35339    0.39954    0.53841    1.000
    Si2211   Si       0.36765    0.42121    0.50301    1.000
    Si2212   Si       0.39635    0.45119    0.58772    1.000
    Si2213   Si       0.35412    0.50185    0.56413    1.000
    N2214    N        0.39642    0.45261    0.50735    1.000
    Si2215   Si       0.34896    0.29226    0.72465    1.000
    N2216    N        0.39010    0.30236    0.70799    1.000
    Si2217   Si       0.35604    0.33965    0.63639    1.000
    N2218    N        0.36190    0.29628    0.63775    1.000
    N2219    N        0.38114    0.36143    0.66356    1.000
    N2220    N        0.38210    0.36413    0.73872    1.000
    Si2221   Si       0.39699    0.34582    0.70154    1.000
    N2222    N        0.35513    0.47401    0.71847    1.000
    N2223    N        0.39593    0.42978    0.62407    1.000
    N2224    N        0.39629    0.48408    0.66810    1.000
    Si2225   Si       0.35687    0.46486    0.67800    1.000
    N2226    N        0.34774    0.42243    0.67229    1.000
    Si2227   Si       0.38620    0.40366    0.65722    1.000
    N2228    N        0.35653    0.32609    0.81449    1.000
    Si2229   Si       0.35667    0.35246    0.77395    1.000
    Si2230   Si       0.39395    0.33998    0.82781    1.000
    N2231    N        0.39437    0.37422    0.79910    1.000
    N2232    N        0.39503    0.35502    0.86783    1.000
    N2233    N        0.35576    0.25978    0.86707    1.000
    Si2234   Si       0.35241    0.45604    0.85687    1.000
    N2235    N        0.38024    0.48143    0.83497    1.000
    N2236    N        0.37344    0.44230    0.78305    1.000
    Si2237   Si       0.36610    0.40705    0.80660    1.000
    N2238    N        0.36607    0.41722    0.84770    1.000
    Si2239   Si       0.40369    0.47045    0.79927    1.000
    N2240    N        0.34596    0.31753    0.90510    1.000
    Si2241   Si       0.38234    0.33966    0.91119    1.000
    N2242    N        0.36982    0.28740    0.96768    1.000
    N2243    N        0.36705    0.38035    0.91900    1.000
    N2244    N        0.35458    0.46314    0.89969    1.000
    Si2245   Si       0.36324    0.38654    0.87557    1.000
    Si2246   Si       0.35591    0.39774    0.95664    1.000
    Si2247   Si       0.38376    0.49305    0.91242    1.000
    N2248    N        0.38953    0.40289    0.98252    1.000
    N2249    N        0.36248    0.50039    0.95015    1.000
    Si2250   Si       0.37957    0.53718    0.09763    1.000
    N2251    N        0.35864    0.52451    0.01364    1.000
    N2252    N        0.35610    0.59522    0.03412    1.000
    Si2253   Si       0.38180    0.56228    0.02722    1.000
    N2254    N        0.34924    0.56756    0.10045    1.000
    Si2255   Si       0.36243    0.60354    0.11836    1.000
    Si2256   Si       0.37517    0.63537    0.04644    1.000
    N2257    N        0.36226    0.63538    0.08862    1.000
    Si2258   Si       0.37543    0.67699    0.09754    1.000
    N2259    N        0.35757    0.72355    0.01941    1.000
    N2260    N        0.34837    0.65631    0.01413    1.000
    N2261    N        0.39392    0.67869    0.05909    1.000
    Si2262   Si       0.39486    0.70500    0.02598    1.000
    N2263    N        0.34574    0.70491    0.10971    1.000
    N2264    N        0.36079    0.59176    0.21960    1.000
    Si2265   Si       0.38411    0.53650    0.17241    1.000
    Si2266   Si       0.39319    0.61828    0.22242    1.000
    N2267    N        0.34325    0.54697    0.17258    1.000
    Si2268   Si       0.39936    0.50926    0.24434    1.000
    Si2269   Si       0.39085    0.67374    0.17048    1.000
    N2270    N        0.34713    0.67930    0.16906    1.000
    Si2271   Si       0.37930    0.73441    0.20821    1.000
    N2272    N        0.37334    0.74232    0.16480    1.000
    N2273    N        0.34194    0.71878    0.22520    1.000
    N2274    N        0.35584    0.57362    0.32733    1.000
    Si2275   Si       0.35387    0.53943    0.29931    1.000
    Si2276   Si       0.38881    0.59816    0.33911    1.000
    N2277    N        0.39276    0.53218    0.28177    1.000
    N2278    N        0.38038    0.63753    0.32053    1.000
    Si2279   Si       0.35836    0.64447    0.28381    1.000
    Si2280   Si       0.37582    0.67005    0.35149    1.000
    N2281    N        0.38152    0.71368    0.34901    1.000
    Si2282   Si       0.35139    0.71984    0.26806    1.000
    Si2283   Si       0.38169    0.75063    0.32636    1.000
    N2284    N        0.39492    0.71704    0.26082    1.000
    N2285    N        0.35717    0.75678    0.29008    1.000
    N2286    N        0.38257    0.65104    0.24855    1.000
    N2287    N        0.38161    0.60735    0.44448    1.000
    Si2288   Si       0.36564    0.58702    0.41104    1.000
    N2289    N        0.35398    0.54627    0.42558    1.000
    N2290    N        0.39576    0.59966    0.38132    1.000
    Si2291   Si       0.37351    0.50639    0.41907    1.000
    N2292    N        0.38400    0.73088    0.49470    1.000
    Si2293   Si       0.36899    0.71133    0.45999    1.000
    Si2294   Si       0.35645    0.64084    0.45734    1.000
    N2295    N        0.37706    0.73352    0.42213    1.000
    N2296    N        0.38778    0.67321    0.45828    1.000
    N2297    N        0.40447    0.66798    0.38507    1.000
    Si2298   Si       0.39970    0.71334    0.38928    1.000
    N2299    N        0.36114    0.52561    0.60176    1.000
    Si2300   Si       0.35268    0.58864    0.51030    1.000
    N2301    N        0.38037    0.51261    0.53211    1.000
    N2302    N        0.39588    0.58581    0.51098    1.000
    Si2303   Si       0.39760    0.60547    0.60279    1.000
    N2304    N        0.39273    0.63286    0.56942    1.000
    Si2305   Si       0.34803    0.73067    0.56985    1.000
    N2306    N        0.38288    0.70815    0.55825    1.000
    N2307    N        0.36109    0.74875    0.60795    1.000
    Si2308   Si       0.39590    0.67439    0.58202    1.000
    N2309    N        0.36832    0.67429    0.61794    1.000
    N2310    N        0.36354    0.60710    0.62885    1.000
    N2311    N        0.37037    0.54970    0.66235    1.000
    Si2312   Si       0.37118    0.59196    0.66842    1.000
    N2313    N        0.34651    0.60413    0.70181    1.000
    N2314    N        0.37040    0.55825    0.74401    1.000
    Si2315   Si       0.36033    0.71415    0.63439    1.000
    Si2316   Si       0.38309    0.70687    0.70567    1.000
    N2317    N        0.38921    0.72348    0.66481    1.000
    N2318    N        0.37837    0.66309    0.70086    1.000
    N2319    N        0.34780    0.72745    0.71960    1.000
    N2320    N        0.35786    0.61380    0.80187    1.000
    Si2321   Si       0.37290    0.53004    0.77505    1.000
    N2322    N        0.37613    0.54962    0.81609    1.000
    Si2323   Si       0.37890    0.59009    0.83067    1.000
    Si2324   Si       0.39143    0.52150    0.84583    1.000
    Si2325   Si       0.39506    0.62957    0.78438    1.000
    N2326    N        0.36006    0.59174    0.86974    1.000
    N2327    N        0.38904    0.67176    0.78461    1.000
    Si2328   Si       0.36660    0.70478    0.80262    1.000
    N2329    N        0.37763    0.71074    0.84722    1.000
    N2330    N        0.37779    0.74221    0.78612    1.000
    Si2331   Si       0.35351    0.75551    0.75205    1.000
    Si2332   Si       0.37467    0.56695    0.90305    1.000
    N2333    N        0.38151    0.52774    0.88760    1.000
    N2334    N        0.34900    0.56639    0.93961    1.000
    Si2335   Si       0.36335    0.53752    0.97166    1.000
    N2336    N        0.39564    0.56372    0.98619    1.000
    Si2337   Si       0.39329    0.72509    0.96265    1.000
    N2338    N        0.35138    0.71619    0.95678    1.000
    N2339    N        0.37087    0.83870    0.08678    1.000
    N2340    N        0.38149    0.78546    0.04222    1.000
    Si2341   Si       0.35255    0.80126    0.07031    1.000
    N2342    N        0.35065    0.77698    0.10597    1.000
    Si2343   Si       0.35883    0.76665    0.00832    1.000
    Si2344   Si       0.35108    0.87655    0.08371    1.000
    N2345    N        0.38692    0.89426    0.06360    1.000
    N2346    N        0.36492    0.95926    0.04906    1.000
    Si2347   Si       0.37168    0.99577    0.06831    1.000
    N2348    N        0.38139    0.98309    0.11021    1.000
    N2349    N        0.34346    0.90048    0.12074    1.000
    Si2350   Si       0.38744    0.76460    0.12856    1.000
    N2351    N        0.36079    0.83650    0.23430    1.000
    N2352    N        0.39389    0.77020    0.22739    1.000
    Si2353   Si       0.39857    0.81248    0.23288    1.000
    N2354    N        0.38115    0.94152    0.16304    1.000
    N2355    N        0.34306    0.88508    0.18545    1.000
    Si2356   Si       0.36923    0.90108    0.15622    1.000
    Si2357   Si       0.36096    0.97702    0.14771    1.000
    Si2358   Si       0.37174    0.84151    0.27782    1.000
    N2359    N        0.37601    0.77955    0.35925    1.000
    N2360    N        0.37946    0.88197    0.28536    1.000
    Si2361   Si       0.38528    0.96290    0.29559    1.000
    N2362    N        0.38582    0.00470    0.28580    1.000
    N2363    N        0.34591    0.94665    0.28410    1.000
    N2364    N        0.40239    0.97249    0.33835    1.000
    Si2365   Si       0.35986    0.77327    0.42459    1.000
    N2366    N        0.37261    0.81637    0.41349    1.000
    N2367    N        0.34739    0.77952    0.46730    1.000
    N2368    N        0.34655    0.90051    0.46632    1.000
    Si2369   Si       0.36296    0.91331    0.42778    1.000
    N2370    N        0.34739    0.94827    0.36919    1.000
    N2371    N        0.38348    0.99926    0.40416    1.000
    N2372    N        0.39769    0.93212    0.41118    1.000
    Si2373   Si       0.38574    0.96384    0.38178    1.000
    N2374    N        0.39991    0.98093    0.47842    1.000
    Si2375   Si       0.37489    0.83248    0.54823    1.000
    N2376    N        0.35332    0.86221    0.52806    1.000
    N2377    N        0.35385    0.81203    0.58055    1.000
    N2378    N        0.38820    0.79988    0.52110    1.000
    Si2379   Si       0.36308    0.76801    0.50635    1.000
    Si2380   Si       0.36913    0.79073    0.61557    1.000
    N2381    N        0.36858    0.93629    0.52822    1.000
    N2382    N        0.35507    0.91637    0.60176    1.000
    Si2383   Si       0.38095    0.93139    0.56935    1.000
    Si2384   Si       0.36238    0.97168    0.50235    1.000
    N2385    N        0.39352    0.97104    0.58567    1.000
    Si2386   Si       0.36763    0.89825    0.50552    1.000
    Si2387   Si       0.35636    0.99667    0.57162    1.000
    Si2388   Si       0.39040    0.90157    0.62130    1.000
    Si2389   Si       0.39532    0.00164    0.61930    1.000
    N2390    N        0.37528    0.79087    0.73629    1.000
    N2391    N        0.35781    0.79300    0.65950    1.000
    N2392    N        0.37782    0.86217    0.63658    1.000
    Si2393   Si       0.37100    0.81274    0.69822    1.000
    Si2394   Si       0.33899    0.86223    0.65319    1.000
    N2395    N        0.35683    0.93920    0.69805    1.000
    Si2396   Si       0.34603    0.93201    0.73964    1.000
    N2397    N        0.38592    0.99126    0.65947    1.000
    Si2398   Si       0.39184    0.95417    0.67864    1.000
    N2399    N        0.37055    0.80535    0.80942    1.000
    Si2400   Si       0.38092    0.81713    0.76847    1.000
    N2401    N        0.35248    0.87607    0.82228    1.000
    Si2402   Si       0.37379    0.87761    0.78330    1.000
    N2403    N        0.34861    0.84823    0.75943    1.000
    Si2404   Si       0.34469    0.83447    0.83106    1.000
    Si2405   Si       0.37245    0.97141    0.85538    1.000
    N2406    N        0.37975    0.91519    0.76193    1.000
    N2407    N        0.33978    0.95539    0.83295    1.000
    N2408    N        0.39554    0.76623    0.98316    1.000
    Si2409   Si       0.36771    0.83634    0.90993    1.000
    N2410    N        0.38566    0.87546    0.90552    1.000
    N2411    N        0.34576    0.82527    0.87419    1.000
    N2412    N        0.37884    0.94950    0.89179    1.000
    N2413    N        0.35362    0.99885    0.93165    1.000
    Si2414   Si       0.39239    0.00126    0.90958    1.000
    Si2415   Si       0.36032    0.91177    0.91310    1.000
    Si2416   Si       0.36525    0.99818    0.97275    1.000
    N2417    N        0.37750    0.93112    0.95221    1.000
    Si2418   Si       0.41561    0.08715    0.07251    1.000
    N2419    N        0.43508    0.12414    0.06659    1.000
    N2420    N        0.45011    0.06111    0.05899    1.000
    Si2421   Si       0.44373    0.01932    0.06560    1.000
    N2422    N        0.44226    0.01328    0.10630    1.000
    N2423    N        0.40343    0.01602    0.04796    1.000
    N2424    N        0.40597    0.06903    0.11137    1.000
    Si2425   Si       0.41885    0.15218    0.09604    1.000
    N2426    N        0.42435    0.18790    0.07281    1.000
    Si2427   Si       0.42857    0.19899    0.02884    1.000
    N2428    N        0.43770    0.25048    0.11445    1.000
    Si2429   Si       0.45566    0.22170    0.08499    1.000
    N2430    N        0.45193    0.23584    0.04413    1.000
    N2431    N        0.45632    0.17190    0.01128    1.000
    Si2432   Si       0.43597    0.04826    0.13226    1.000
    N2433    N        0.43357    0.03499    0.17476    1.000
    N2434    N        0.44126    0.08981    0.21333    1.000
    Si2435   Si       0.40575    0.01247    0.20119    1.000
    N2436    N        0.46023    0.20352    0.17305    1.000
    Si2437   Si       0.43597    0.23449    0.19213    1.000
    N2438    N        0.44563    0.22373    0.23330    1.000
    Si2439   Si       0.44456    0.16351    0.16856    1.000
    N2440    N        0.44806    0.14667    0.12817    1.000
    N2441    N        0.40672    0.14962    0.18331    1.000
    Si2442   Si       0.40389    0.15121    0.22823    1.000
    N2443    N        0.43896    0.03249    0.31676    1.000
    N2444    N        0.42203    0.10169    0.30441    1.000
    Si2445   Si       0.44001    0.07213    0.33509    1.000
    Si2446   Si       0.44175    0.13742    0.28918    1.000
    N2447    N        0.41906    0.17422    0.30461    1.000
    N2448    N        0.42289    0.24283    0.33053    1.000
    Si2449   Si       0.42923    0.19524    0.26400    1.000
    Si2450   Si       0.44671    0.20479    0.32896    1.000
    N2451    N        0.44404    0.15025    0.24755    1.000
    N2452    N        0.45852    0.14158    0.36713    1.000
    N2453    N        0.42316    0.05815    0.37531    1.000
    N2454    N        0.43248    0.11352    0.48177    1.000
    N2455    N        0.41554    0.04713    0.44432    1.000
    N2456    N        0.44467    0.10478    0.41959    1.000
    Si2457   Si       0.44489    0.06122    0.41372    1.000
    Si2458   Si       0.41514    0.07439    0.47819    1.000
    Si2459   Si       0.42397    0.12651    0.38841    1.000
    Si2460   Si       0.41768    0.25224    0.43757    1.000
    N2461    N        0.41478    0.16577    0.40662    1.000
    Si2462   Si       0.40517    0.19736    0.49260    1.000
    Si2463   Si       0.45739    0.17643    0.39676    1.000
    N2464    N        0.41611    0.23789    0.47898    1.000
    N2465    N        0.42015    0.07077    0.56424    1.000
    Si2466   Si       0.44506    0.09987    0.58440    1.000
    Si2467   Si       0.44972    0.04319    0.54196    1.000
    N2468    N        0.43778    0.12884    0.61662    1.000
    N2469    N        0.43725    0.00762    0.61245    1.000
    N2470    N        0.44634    0.05162    0.49995    1.000
    Si2471   Si       0.43209    0.13727    0.51935    1.000
    N2472    N        0.44058    0.23189    0.54240    1.000
    Si2473   Si       0.43069    0.22593    0.58367    1.000
    N2474    N        0.41647    0.18476    0.58411    1.000
    N2475    N        0.44184    0.17684    0.50450    1.000
    Si2476   Si       0.44415    0.05279    0.69238    1.000
    N2477    N        0.40861    0.03489    0.71008    1.000
    N2478    N        0.42731    0.08189    0.66486    1.000
    Si2479   Si       0.45646    0.10289    0.64373    1.000
    N2480    N        0.42442    0.15947    0.71206    1.000
    N2481    N        0.42307    0.24929    0.73776    1.000
    N2482    N        0.44616    0.18681    0.65265    1.000
    Si2483   Si       0.42044    0.16796    0.62466    1.000
    Si2484   Si       0.45758    0.23022    0.65086    1.000
    Si2485   Si       0.44556    0.10524    0.78913    1.000
    N2486    N        0.43520    0.06748    0.77150    1.000
    N2487    N        0.44983    0.01091    0.80423    1.000
    N2488    N        0.41169    0.12979    0.77541    1.000
    N2489    N        0.45858    0.11278    0.83007    1.000
    Si2490   Si       0.40162    0.05013    0.75231    1.000
    Si2491   Si       0.42739    0.14029    0.84406    1.000
    N2492    N        0.42397    0.18240    0.82850    1.000
    Si2493   Si       0.42177    0.16768    0.75598    1.000
    N2494    N        0.45741    0.24720    0.80309    1.000
    N2495    N        0.45753    0.18943    0.77120    1.000
    Si2496   Si       0.45566    0.20453    0.81315    1.000
    N2497    N        0.40261    0.04142    0.92765    1.000
    Si2498   Si       0.42694    0.10264    0.98139    1.000
    N2499    N        0.43207    0.10036    0.93783    1.000
    N2500    N        0.42511    0.05826    0.99391    1.000
    Si2501   Si       0.42684    0.02833    0.96066    1.000
    Si2502   Si       0.45850    0.25195    0.89166    1.000
    N2503    N        0.41262    0.17648    0.94660    1.000
    N2504    N        0.45907    0.21037    0.90272    1.000
    Si2505   Si       0.42407    0.18172    0.90479    1.000
    N2506    N        0.43714    0.14516    0.88489    1.000
    N2507    N        0.43507    0.37052    0.05938    1.000
    Si2508   Si       0.44291    0.34018    0.02677    1.000
    Si2509   Si       0.44978    0.46780    0.01591    1.000
    N2510    N        0.43463    0.42745    0.02112    1.000
    N2511    N        0.42060    0.49560    0.03176    1.000
    N2512    N        0.45111    0.43147    0.09362    1.000
    N2513    N        0.45191    0.50386    0.09164    1.000
    Si2514   Si       0.45555    0.28453    0.13757    1.000
    N2515    N        0.43137    0.32108    0.12929    1.000
    Si2516   Si       0.43476    0.35867    0.15295    1.000
    N2517    N        0.42860    0.33634    0.19217    1.000
    N2518    N        0.44938    0.27296    0.17938    1.000
    Si2519   Si       0.45276    0.30614    0.20749    1.000
    Si2520   Si       0.41073    0.41042    0.19813    1.000
    N2521    N        0.45377    0.47031    0.15072    1.000
    Si2522   Si       0.42995    0.43848    0.13211    1.000
    N2523    N        0.44264    0.41854    0.22543    1.000
    N2524    N        0.42432    0.40243    0.15765    1.000
    Si2525   Si       0.43863    0.28310    0.33109    1.000
    N2526    N        0.41846    0.31499    0.31049    1.000
    Si2527   Si       0.40708    0.30441    0.26944    1.000
    N2528    N        0.44461    0.29969    0.24842    1.000
    Si2529   Si       0.45372    0.36703    0.36432    1.000
    N2530    N        0.41703    0.38342    0.34930    1.000
    Si2531   Si       0.43272    0.44203    0.26254    1.000
    N2532    N        0.43681    0.48415    0.25463    1.000
    Si2533   Si       0.40376    0.42297    0.36200    1.000
    N2534    N        0.44939    0.28541    0.37374    1.000
    N2535    N        0.41191    0.29377    0.43085    1.000
    N2536    N        0.43331    0.36579    0.46128    1.000
    N2537    N        0.43233    0.34781    0.39674    1.000
    Si2538   Si       0.44543    0.30876    0.41044    1.000
    Si2539   Si       0.43180    0.49106    0.37891    1.000
    N2540    N        0.43588    0.44930    0.37151    1.000
    N2541    N        0.40876    0.33012    0.54246    1.000
    N2542    N        0.43504    0.37199    0.59089    1.000
    N2543    N        0.42245    0.31417    0.61181    1.000
    Si2544   Si       0.40507    0.34047    0.58440    1.000
    Si2545   Si       0.45371    0.32489    0.53481    1.000
    Si2546   Si       0.42214    0.25983    0.51533    1.000
    N2547    N        0.45427    0.28746    0.51504    1.000
    Si2548   Si       0.45830    0.33943    0.60975    1.000
    Si2549   Si       0.43470    0.44518    0.52321    1.000
    N2550    N        0.43436    0.43827    0.56704    1.000
    N2551    N        0.41647    0.49039    0.59464    1.000
    N2552    N        0.44252    0.40257    0.51881    1.000
    Si2553   Si       0.45384    0.46691    0.59181    1.000
    Si2554   Si       0.45189    0.39732    0.56163    1.000
    Si2555   Si       0.42644    0.27754    0.70286    1.000
    N2556    N        0.43901    0.35444    0.70210    1.000
    N2557    N        0.42631    0.26022    0.66070    1.000
    Si2558   Si       0.40313    0.27874    0.62888    1.000
    N2559    N        0.42122    0.41793    0.67791    1.000
    N2560    N        0.43970    0.40673    0.74250    1.000
    Si2561   Si       0.45203    0.39824    0.69961    1.000
    Si2562   Si       0.42070    0.45294    0.65367    1.000
    N2563    N        0.45942    0.47462    0.73509    1.000
    N2564    N        0.42586    0.31318    0.82089    1.000
    Si2565   Si       0.42522    0.26972    0.82501    1.000
    Si2566   Si       0.41825    0.37414    0.75961    1.000
    N2567    N        0.45174    0.34595    0.76669    1.000
    N2568    N        0.42314    0.25341    0.86609    1.000
    N2569    N        0.44315    0.45284    0.79952    1.000
    Si2570   Si       0.45651    0.44090    0.76027    1.000
    N2571    N        0.40562    0.50499    0.77145    1.000
    Si2572   Si       0.43879    0.35552    0.87116    1.000
    N2573    N        0.45059    0.36878    0.91250    1.000
    N2574    N        0.41385    0.31718    0.93026    1.000
    Si2575   Si       0.41261    0.27803    0.94951    1.000
    Si2576   Si       0.45572    0.32348    0.92142    1.000
    N2577    N        0.42707    0.27506    0.99146    1.000
    N2578    N        0.45596    0.27391    0.92773    1.000
    N2579    N        0.45516    0.36547    0.99517    1.000
    Si2580   Si       0.44880    0.50025    0.87941    1.000
    Si2581   Si       0.45283    0.46891    0.94246    1.000
    N2582    N        0.44962    0.42684    0.95180    1.000
    N2583    N        0.42760    0.48640    0.91442    1.000
    Si2584   Si       0.43285    0.40155    0.98344    1.000
    Si2585   Si       0.42322    0.58958    0.08471    1.000
    Si2586   Si       0.44280    0.52806    0.05629    1.000
    N2587    N        0.41801    0.61814    0.05368    1.000
    N2588    N        0.40412    0.55265    0.06338    1.000
    N2589    N        0.41462    0.74637    0.10268    1.000
    Si2590   Si       0.44189    0.72562    0.07781    1.000
    N2591    N        0.42682    0.73248    0.03779    1.000
    Si2592   Si       0.43602    0.65915    0.05317    1.000
    N2593    N        0.45775    0.68315    0.08178    1.000
    N2594    N        0.40692    0.59818    0.12350    1.000
    N2595    N        0.42549    0.59461    0.23808    1.000
    Si2596   Si       0.43945    0.56249    0.21307    1.000
    Si2597   Si       0.43158    0.61212    0.15628    1.000
    N2598    N        0.45231    0.57911    0.17555    1.000
    N2599    N        0.40710    0.53232    0.20801    1.000
    Si2600   Si       0.44115    0.50906    0.13333    1.000
    N2601    N        0.40027    0.52624    0.13454    1.000
    N2602    N        0.40402    0.67635    0.13075    1.000
    N2603    N        0.40623    0.63595    0.18524    1.000
    N2604    N        0.41225    0.70261    0.19871    1.000
    Si2605   Si       0.44898    0.72264    0.18312    1.000
    Si2606   Si       0.41035    0.68357    0.23885    1.000
    Si2607   Si       0.44676    0.67499    0.12252    1.000
    N2608    N        0.42192    0.57541    0.31934    1.000
    Si2609   Si       0.42091    0.53155    0.31457    1.000
    Si2610   Si       0.44127    0.57894    0.27464    1.000
    N2611    N        0.45292    0.62402    0.35963    1.000
    N2612    N        0.40457    0.50789    0.34770    1.000
    N2613    N        0.45039    0.67529    0.25392    1.000
    Si2614   Si       0.40989    0.75699    0.26527    1.000
    N2615    N        0.44239    0.62154    0.48936    1.000
    N2616    N        0.44488    0.57103    0.44811    1.000
    Si2617   Si       0.41611    0.59434    0.46979    1.000
    N2618    N        0.41445    0.52106    0.48105    1.000
    Si2619   Si       0.43921    0.52758    0.44679    1.000
    Si2620   Si       0.42502    0.63095    0.39286    1.000
    N2621    N        0.41607    0.50737    0.41625    1.000
    N2622    N        0.45828    0.63251    0.42420    1.000
    Si2623   Si       0.42658    0.66263    0.47658    1.000
    N2624    N        0.43548    0.73778    0.38943    1.000
    N2625    N        0.45014    0.69460    0.45348    1.000
    Si2626   Si       0.45896    0.73286    0.47389    1.000
    N2627    N        0.45047    0.54413    0.53743    1.000
    N2628    N        0.41129    0.56821    0.58284    1.000
    N2629    N        0.45072    0.61722    0.55194    1.000
    Si2630   Si       0.40952    0.54248    0.52001    1.000
    Si2631   Si       0.41420    0.62602    0.53032    1.000
    Si2632   Si       0.45140    0.57463    0.56808    1.000
    Si2633   Si       0.40561    0.53031    0.60654    1.000
    N2634    N        0.43834    0.67647    0.59451    1.000
    N2635    N        0.44752    0.72999    0.51494    1.000
    N2636    N        0.41371    0.66755    0.51886    1.000
    Si2637   Si       0.40890    0.71072    0.52379    1.000
    Si2638   Si       0.45679    0.63651    0.59156    1.000
    N2639    N        0.43339    0.61802    0.62515    1.000
    N2640    N        0.43438    0.53528    0.64091    1.000
    N2641    N        0.42395    0.53888    0.71128    1.000
    Si2642   Si       0.44833    0.61137    0.66577    1.000
    Si2643   Si       0.40521    0.52532    0.67349    1.000
    N2644    N        0.40896    0.60066    0.68592    1.000
    Si2645   Si       0.40676    0.57730    0.72481    1.000
    N2646    N        0.40877    0.61519    0.74641    1.000
    N2647    N        0.45448    0.63868    0.69902    1.000
    Si2648   Si       0.45103    0.73111    0.71373    1.000
    Si2649   Si       0.41224    0.63882    0.71054    1.000
    Si2650   Si       0.41453    0.75533    0.65158    1.000
    N2651    N        0.41591    0.71296    0.73301    1.000
    N2652    N        0.44841    0.74204    0.62446    1.000
    N2653    N        0.41816    0.60993    0.81586    1.000
    N2654    N        0.43458    0.51901    0.84217    1.000
    Si2655   Si       0.43692    0.51250    0.74292    1.000
    Si2656   Si       0.42540    0.69569    0.77217    1.000
    N2657    N        0.43602    0.71030    0.81539    1.000
    Si2658   Si       0.41702    0.72519    0.85381    1.000
    N2659    N        0.45997    0.66983    0.76483    1.000
    N2660    N        0.45909    0.56121    0.96071    1.000
    Si2661   Si       0.42179    0.58599    0.96286    1.000
    N2662    N        0.41365    0.57697    0.91904    1.000
    N2663    N        0.42531    0.62789    0.96649    1.000
    Si2664   Si       0.45704    0.56531    0.91808    1.000
    Si2665   Si       0.44220    0.66499    0.97746    1.000
    N2666    N        0.41911    0.73991    0.93223    1.000
    Si2667   Si       0.45683    0.71982    0.92180    1.000
    N2668    N        0.40964    0.69252    0.98764    1.000
    N2669    N        0.45062    0.71056    0.87772    1.000
    N2670    N        0.43566    0.84845    0.09816    1.000
    Si2671   Si       0.41852    0.77184    0.02304    1.000
    N2672    N        0.44352    0.86329    0.03443    1.000
    Si2673   Si       0.41184    0.85916    0.06311    1.000
    N2674    N        0.45511    0.79330    0.02751    1.000
    N2675    N        0.42986    0.94760    0.07635    1.000
    N2676    N        0.42080    0.92786    0.01071    1.000
    Si2677   Si       0.42403    0.97347    0.10999    1.000
    Si2678   Si       0.45407    0.89925    0.01205    1.000
    Si2679   Si       0.40033    0.93346    0.04793    1.000
    N2680    N        0.39568    0.86554    0.15085    1.000
    Si2681   Si       0.39999    0.83680    0.12093    1.000
    N2682    N        0.42654    0.83739    0.21442    1.000
    Si2683   Si       0.44868    0.79654    0.15598    1.000
    Si2684   Si       0.42931    0.86236    0.17749    1.000
    N2685    N        0.40835    0.80072    0.14188    1.000
    N2686    N        0.44237    0.95956    0.14532    1.000
    N2687    N        0.42105    0.97399    0.21219    1.000
    N2688    N        0.43351    0.90600    0.18862    1.000
    Si2689   Si       0.42074    0.94612    0.18000    1.000
    Si2690   Si       0.43767    0.87151    0.34932    1.000
    N2691    N        0.41405    0.83489    0.34413    1.000
    Si2692   Si       0.42963    0.80657    0.31229    1.000
    N2693    N        0.42140    0.76312    0.30901    1.000
    N2694    N        0.45006    0.87833    0.27060    1.000
    N2695    N        0.40713    0.81504    0.27476    1.000
    Si2696   Si       0.43833    0.94790    0.33916    1.000
    N2697    N        0.43523    0.90686    0.32504    1.000
    N2698    N        0.41805    0.94561    0.27441    1.000
    Si2699   Si       0.41720    0.90306    0.28247    1.000
    Si2700   Si       0.44475    0.96583    0.24637    1.000
    N2701    N        0.43725    0.80620    0.39874    1.000
    N2702    N        0.44341    0.87759    0.39324    1.000
    Si2703   Si       0.45137    0.76832    0.41408    1.000
    N2704    N        0.45196    0.77319    0.45620    1.000
    Si2705   Si       0.40033    0.81175    0.37906    1.000
    N2706    N        0.45338    0.94679    0.37916    1.000
    Si2707   Si       0.43916    0.91805    0.40918    1.000
    N2708    N        0.40925    0.89121    0.49432    1.000
    Si2709   Si       0.44762    0.91026    0.49038    1.000
    N2710    N        0.41600    0.83780    0.56290    1.000
    Si2711   Si       0.43121    0.80740    0.53506    1.000
    Si2712   Si       0.43835    0.86714    0.58455    1.000
    N2713    N        0.44345    0.77649    0.56270    1.000
    Si2714   Si       0.45095    0.78163    0.60438    1.000
    Si2715   Si       0.43622    0.97994    0.57821    1.000
    N2716    N        0.41429    0.90472    0.58289    1.000
    Si2717   Si       0.43690    0.98443    0.50133    1.000
    N2718    N        0.43399    0.00254    0.54116    1.000
    N2719    N        0.45457    0.94555    0.51410    1.000
    N2720    N        0.44289    0.85936    0.62667    1.000
    N2721    N        0.41148    0.79479    0.62594    1.000
    N2722    N        0.43342    0.76251    0.68898    1.000
    Si2723   Si       0.44236    0.80391    0.70039    1.000
    Si2724   Si       0.41203    0.83564    0.64410    1.000
    N2725    N        0.41070    0.82890    0.68782    1.000
    N2726    N        0.42908    0.96043    0.69855    1.000
    Si2727   Si       0.45058    0.93640    0.66702    1.000
    N2728    N        0.44460    0.89246    0.74159    1.000
    N2729    N        0.41079    0.92515    0.64962    1.000
    Si2730   Si       0.45796    0.97110    0.73053    1.000
    N2731    N        0.42308    0.84262    0.85263    1.000
    N2732    N        0.43489    0.78450    0.78845    1.000
    N2733    N        0.41127    0.76761    0.85194    1.000
    Si2734   Si       0.43420    0.86029    0.81460    1.000
    Si2735   Si       0.44669    0.85170    0.75738    1.000
    N2736    N        0.40832    0.84977    0.77811    1.000
    Si2737   Si       0.40067    0.77167    0.81030    1.000
    N2738    N        0.42962    0.90615    0.80856    1.000
    Si2739   Si       0.43715    0.93673    0.83926    1.000
    N2740    N        0.43239    0.96171    0.76454    1.000
    Si2741   Si       0.41439    0.98909    0.79328    1.000
    Si2742   Si       0.42278    0.92076    0.76775    1.000
    N2743    N        0.40677    0.96497    0.83059    1.000
    Si2744   Si       0.42125    0.80312    0.87473    1.000
    Si2745   Si       0.41504    0.78163    0.94533    1.000
    Si2746   Si       0.42437    0.87461    0.88494    1.000
    N2747    N        0.45137    0.86211    0.91593    1.000
    N2748    N        0.45253    0.80007    0.95823    1.000
    N2749    N        0.40149    0.80723    0.91316    1.000
    N2750    N        0.40778    0.98848    0.97112    1.000
    Si2751   Si       0.41485    0.94478    0.97027    1.000
    N2752    N        0.44330    0.93124    0.94096    1.000
    N2753    N        0.43317    0.98508    0.89895    1.000
    Si2754   Si       0.42116    0.94349    0.90447    1.000
    N2755    N        0.43324    0.91506    0.87587    1.000
    N2756    N        0.49443    0.04503    0.00360    1.000
    N2757    N        0.46753    0.10677    0.00436    1.000
    Si2758   Si       0.50869    0.01786    0.03444    1.000
    Si2759   Si       0.46144    0.06563    0.01800    1.000
    N2760    N        0.51503    0.13009    0.12412    1.000
    Si2761   Si       0.46453    0.13583    0.03712    1.000
    N2762    N        0.50279    0.14487    0.05542    1.000
    N2763    N        0.49027    0.19891    0.09522    1.000
    Si2764   Si       0.51198    0.16238    0.09534    1.000
    Si2765   Si       0.47810    0.11991    0.14252    1.000
    N2766    N        0.50685    0.05824    0.18843    1.000
    Si2767   Si       0.46861    0.12298    0.22457    1.000
    Si2768   Si       0.46334    0.06621    0.18486    1.000
    N2769    N        0.50147    0.10230    0.24166    1.000
    N2770    N        0.46581    0.07933    0.14321    1.000
    N2771    N        0.50937    0.19603    0.23073    1.000
    Si2772   Si       0.49966    0.20242    0.18759    1.000
    N2773    N        0.47748    0.13721    0.18400    1.000
    N2774    N        0.51407    0.24420    0.18258    1.000
    Si2775   Si       0.49058    0.12516    0.34323    1.000
    N2776    N        0.48152    0.08093    0.34609    1.000
    Si2777   Si       0.50663    0.04622    0.34849    1.000
    N2778    N        0.50519    0.02992    0.30794    1.000
    N2779    N        0.49417    0.01395    0.37375    1.000
    N2780    N        0.48387    0.13254    0.30044    1.000
    N2781    N        0.46118    0.20960    0.37052    1.000
    N2782    N        0.46563    0.20815    0.28829    1.000
    Si2783   Si       0.48457    0.22324    0.25277    1.000
    N2784    N        0.48029    0.04330    0.43237    1.000
    N2785    N        0.50227    0.11739    0.45689    1.000
    Si2786   Si       0.48015    0.03664    0.47501    1.000
    Si2787   Si       0.50713    0.01248    0.41388    1.000
    N2788    N        0.51548    0.05452    0.48934    1.000
    Si2789   Si       0.46012    0.12850    0.45190    1.000
    N2790    N        0.49109    0.22920    0.49664    1.000
    N2791    N        0.47509    0.16785    0.43516    1.000
    Si2792   Si       0.46959    0.24899    0.38638    1.000
    Si2793   Si       0.49546    0.24171    0.45635    1.000
    N2794    N        0.46126    0.24721    0.42926    1.000
    N2795    N        0.50991    0.25471    0.37283    1.000
    N2796    N        0.49331    0.04587    0.55325    1.000
    Si2797   Si       0.50695    0.05427    0.59469    1.000
    N2798    N        0.47403    0.07813    0.61042    1.000
    N2799    N        0.51071    0.01499    0.61486    1.000
    N2800    N        0.45975    0.12301    0.55080    1.000
    Si2801   Si       0.50072    0.13852    0.55416    1.000
    Si2802   Si       0.46929    0.20472    0.52373    1.000
    N2803    N        0.49398    0.18308    0.54963    1.000
    N2804    N        0.46506    0.23570    0.60655    1.000
    Si2805   Si       0.50485    0.25255    0.59512    1.000
    Si2806   Si       0.50747    0.05059    0.68154    1.000
    N2807    N        0.47213    0.03032    0.66718    1.000
    N2808    N        0.47958    0.07407    0.70787    1.000
    Si2809   Si       0.49911    0.09174    0.74117    1.000
    N2810    N        0.48045    0.12923    0.66797    1.000
    Si2811   Si       0.51733    0.01460    0.74053    1.000
    N2812    N        0.47487    0.00963    0.73958    1.000
    Si2813   Si       0.50822    0.20992    0.70805    1.000
    N2814    N        0.48972    0.17189    0.71680    1.000
    N2815    N        0.49596    0.23948    0.73727    1.000
    N2816    N        0.49584    0.23054    0.67089    1.000
    Si2817   Si       0.46082    0.16208    0.68699    1.000
    Si2818   Si       0.50014    0.10792    0.84545    1.000
    N2819    N        0.47749    0.12080    0.76477    1.000
    N2820    N        0.50897    0.05324    0.76751    1.000
    Si2821   Si       0.46714    0.03635    0.77391    1.000
    N2822    N        0.48407    0.02170    0.87096    1.000
    Si2823   Si       0.45835    0.23486    0.75855    1.000
    N2824    N        0.49452    0.20187    0.82975    1.000
    Si2825   Si       0.49720    0.24733    0.82305    1.000
    Si2826   Si       0.49217    0.16205    0.75848    1.000
    Si2827   Si       0.46205    0.12113    0.91401    1.000
    Si2828   Si       0.50819    0.09921    0.98850    1.000
    N2829    N        0.51124    0.08166    0.95022    1.000
    Si2830   Si       0.50392    0.03925    0.96029    1.000
    N2831    N        0.49382    0.10508    0.88803    1.000
    N2832    N        0.46603    0.02611    0.94398    1.000
    N2833    N        0.49931    0.20297    0.96145    1.000
    N2834    N        0.47890    0.15243    0.93750    1.000
    Si2835   Si       0.49305    0.19122    0.92079    1.000
    Si2836   Si       0.48487    0.16617    0.97780    1.000
    Si2837   Si       0.50379    0.31687    0.05355    1.000
    N2838    N        0.51004    0.34615    0.08479    1.000
    N2839    N        0.46413    0.30617    0.04152    1.000
    N2840    N        0.51709    0.33601    0.01498    1.000
    Si2841   Si       0.46054    0.26885    0.01866    1.000
    Si2842   Si       0.45719    0.40870    0.05633    1.000
    Si2843   Si       0.47598    0.46753    0.08657    1.000
    N2844    N        0.48311    0.46690    0.04394    1.000
    N2845    N        0.50505    0.40606    0.04841    1.000
    N2846    N        0.51148    0.47026    0.11062    1.000
    N2847    N        0.49548    0.31182    0.20595    1.000
    Si2848   Si       0.51160    0.34159    0.23213    1.000
    N2849    N        0.47810    0.36641    0.14762    1.000
    N2850    N        0.49756    0.29908    0.13605    1.000
    N2851    N        0.49276    0.37779    0.21677    1.000
    Si2852   Si       0.50667    0.34074    0.12759    1.000
    Si2853   Si       0.51388    0.28671    0.17489    1.000
    Si2854   Si       0.50495    0.38433    0.17603    1.000
    Si2855   Si       0.49509    0.48483    0.14875    1.000
    N2856    N        0.51446    0.43556    0.23680    1.000
    Si2857   Si       0.48168    0.40787    0.24463    1.000
    N2858    N        0.50413    0.32948    0.27274    1.000
    N2859    N        0.47989    0.28220    0.31518    1.000
    N2860    N        0.48197    0.36306    0.33248    1.000
    Si2861   Si       0.48128    0.29304    0.27342    1.000
    Si2862   Si       0.51672    0.27807    0.33609    1.000
    N2863    N        0.50522    0.26032    0.25755    1.000
    Si2864   Si       0.51989    0.34615    0.30819    1.000
    N2865    N        0.50372    0.43310    0.34139    1.000
    Si2866   Si       0.48814    0.40160    0.31312    1.000
    N2867    N        0.46421    0.41962    0.28325    1.000
    N2868    N        0.48368    0.32783    0.42520    1.000
    N2869    N        0.50773    0.28200    0.47211    1.000
    Si2870   Si       0.46471    0.36838    0.42513    1.000
    Si2871   Si       0.46309    0.38233    0.48736    1.000
    N2872    N        0.51615    0.45343    0.47639    1.000
    Si2873   Si       0.49424    0.49060    0.48468    1.000
    N2874    N        0.50117    0.45332    0.40808    1.000
    N2875    N        0.48569    0.39593    0.45424    1.000
    Si2876   Si       0.49854    0.49664    0.41042    1.000
    N2877    N        0.47261    0.39375    0.39036    1.000
    Si2878   Si       0.47684    0.43352    0.37754    1.000
    Si2879   Si       0.51172    0.42797    0.44071    1.000
    N2880    N        0.47676    0.32830    0.57232    1.000
    Si2881   Si       0.49339    0.26910    0.51449    1.000
    N2882    N        0.48065    0.34897    0.50915    1.000
    N2883    N        0.50899    0.27206    0.55597    1.000
    Si2884   Si       0.51796    0.31489    0.56527    1.000
    N2885    N        0.49421    0.40514    0.56825    1.000
    N2886    N        0.48470    0.49188    0.57747    1.000
    N2887    N        0.46269    0.47597    0.51310    1.000
    Si2888   Si       0.51898    0.49810    0.60567    1.000
    Si2889   Si       0.50418    0.27927    0.72530    1.000
    Si2890   Si       0.50907    0.36579    0.67465    1.000
    N2891    N        0.50635    0.35028    0.71478    1.000
    N2892    N        0.48776    0.34222    0.64268    1.000
    Si2893   Si       0.46823    0.33385    0.72754    1.000
    N2894    N        0.46498    0.29313    0.71273    1.000
    N2895    N        0.50743    0.47504    0.68220    1.000
    N2896    N        0.49059    0.40604    0.67537    1.000
    Si2897   Si       0.50382    0.46267    0.72571    1.000
    Si2898   Si       0.49648    0.44476    0.65227    1.000
    N2899    N        0.45856    0.45823    0.63483    1.000
    N2900    N        0.49667    0.31199    0.82000    1.000
    Si2901   Si       0.49900    0.30253    0.86333    1.000
    Si2902   Si       0.46178    0.33840    0.80813    1.000
    N2903    N        0.46097    0.36936    0.83748    1.000
    N2904    N        0.49086    0.25788    0.86448    1.000
    N2905    N        0.51842    0.30564    0.75703    1.000
    N2906    N        0.49903    0.43056    0.75688    1.000
    N2907    N        0.49611    0.50160    0.82195    1.000
    Si2908   Si       0.49758    0.39295    0.84959    1.000
    N2909    N        0.50416    0.42495    0.82251    1.000
    Si2910   Si       0.47996    0.45955    0.82438    1.000
    N2911    N        0.46891    0.46503    0.86566    1.000
    N2912    N        0.48627    0.32375    0.95210    1.000
    Si2913   Si       0.49057    0.28313    0.95170    1.000
    Si2914   Si       0.49416    0.35374    0.98176    1.000
    N2915    N        0.46343    0.31834    0.87921    1.000
    N2916    N        0.49350    0.26479    0.99108    1.000
    N2917    N        0.49368    0.46806    0.92797    1.000
    N2918    N        0.49793    0.40972    0.89052    1.000
    Si2919   Si       0.47809    0.40036    0.92691    1.000
    Si2920   Si       0.50227    0.45273    0.88815    1.000
    N2921    N        0.50989    0.38520    0.95521    1.000
    N2922    N        0.46597    0.48962    0.97970    1.000
    Si2923   Si       0.49534    0.57423    0.05560    1.000
    N2924    N        0.49811    0.61120    0.03589    1.000
    N2925    N        0.47513    0.54275    0.03005    1.000
    N2926    N        0.46251    0.57178    0.08480    1.000
    Si2927   Si       0.50402    0.69715    0.08172    1.000
    N2928    N        0.48500    0.73844    0.08597    1.000
    Si2929   Si       0.50065    0.65120    0.02245    1.000
    N2930    N        0.51666    0.68558    0.04392    1.000
    N2931    N        0.45872    0.65948    0.01630    1.000
    N2932    N        0.47980    0.52614    0.14690    1.000
    Si2933   Si       0.49115    0.56514    0.16219    1.000
    Si2934   Si       0.51008    0.54969    0.23930    1.000
    N2935    N        0.51504    0.59356    0.13836    1.000
    N2936    N        0.51765    0.55230    0.19566    1.000
    N2937    N        0.46506    0.54858    0.24802    1.000
    N2938    N        0.46128    0.71121    0.14281    1.000
    Si2939   Si       0.50718    0.63650    0.14007    1.000
    N2940    N        0.46288    0.63965    0.13913    1.000
    N2941    N        0.48378    0.70666    0.20448    1.000
    Si2942   Si       0.48529    0.74389    0.13089    1.000
    N2943    N        0.50643    0.64388    0.24463    1.000
    N2944    N        0.48664    0.56965    0.34536    1.000
    Si2945   Si       0.48914    0.52740    0.34116    1.000
    N2946    N        0.46844    0.60644    0.29033    1.000
    N2947    N        0.51314    0.51114    0.26046    1.000
    Si2948   Si       0.47117    0.50843    0.26740    1.000
    N2949    N        0.46068    0.52108    0.30801    1.000
    Si2950   Si       0.45828    0.59627    0.32950    1.000
    Si2951   Si       0.47699    0.64756    0.27505    1.000
    Si2952   Si       0.50698    0.70358    0.31086    1.000
    N2953    N        0.48371    0.66647    0.31344    1.000
    N2954    N        0.47986    0.73078    0.33136    1.000
    Si2955   Si       0.48425    0.65351    0.35441    1.000
    N2956    N        0.50885    0.70884    0.27076    1.000
    Si2957   Si       0.47312    0.71015    0.24674    1.000
    N2958    N        0.45636    0.75102    0.25727    1.000
    N2959    N        0.52082    0.63019    0.35625    1.000
    Si2960   Si       0.51424    0.59112    0.36897    1.000
    N2961    N        0.47354    0.50633    0.37687    1.000
    N2962    N        0.48038    0.50942    0.44896    1.000
    N2963    N        0.50826    0.58333    0.41185    1.000
    Si2964   Si       0.48000    0.59755    0.44247    1.000
    N2965    N        0.50604    0.59346    0.47940    1.000
    N2966    N        0.51680    0.67183    0.44559    1.000
    Si2967   Si       0.47799    0.67294    0.42699    1.000
    Si2968   Si       0.51891    0.68993    0.48757    1.000
    N2969    N        0.50445    0.73014    0.47508    1.000
    Si2970   Si       0.47633    0.72596    0.37380    1.000
    N2971    N        0.47948    0.68501    0.38569    1.000
    N2972    N        0.47885    0.56600    0.59895    1.000
    Si2973   Si       0.47961    0.61850    0.51465    1.000
    N2974    N        0.50626    0.58803    0.54171    1.000
    Si2975   Si       0.51203    0.59233    0.58516    1.000
    N2976    N        0.51196    0.51772    0.51462    1.000
    Si2977   Si       0.47330    0.50890    0.54015    1.000
    Si2978   Si       0.51682    0.56073    0.51018    1.000
    N2979    N        0.49879    0.63129    0.59556    1.000
    N2980    N        0.49747    0.65729    0.50873    1.000
    N2981    N        0.48933    0.71746    0.57021    1.000
    Si2982   Si       0.47268    0.74883    0.54493    1.000
    Si2983   Si       0.46748    0.70653    0.60599    1.000
    N2984    N        0.50201    0.53506    0.71018    1.000
    N2985    N        0.47953    0.58307    0.66531    1.000
    Si2986   Si       0.47465    0.55038    0.63751    1.000
    Si2987   Si       0.51169    0.57505    0.69406    1.000
    N2988    N        0.50906    0.52298    0.63938    1.000
    N2989    N        0.51467    0.60377    0.72765    1.000
    Si2990   Si       0.51052    0.70161    0.67127    1.000
    N2991    N        0.47744    0.69998    0.70039    1.000
    N2992    N        0.50147    0.69166    0.63072    1.000
    Si2993   Si       0.48180    0.66092    0.72395    1.000
    N2994    N        0.47504    0.75308    0.73888    1.000
    N2995    N        0.49112    0.62035    0.79274    1.000
    N2996    N        0.47745    0.57190    0.83364    1.000
    Si2997   Si       0.50587    0.53272    0.75513    1.000
    Si2998   Si       0.46500    0.53364    0.81572    1.000
    N2999    N        0.46529    0.53434    0.77176    1.000
    Si3000   Si       0.46073    0.61126    0.82363    1.000
    Si3001   Si       0.49605    0.56320    0.87081    1.000
    N3002    N        0.47149    0.64586    0.84960    1.000
    N3003    N        0.50557    0.69172    0.82124    1.000
    Si3004   Si       0.49713    0.66313    0.78871    1.000
    Si3005   Si       0.46741    0.69080    0.84165    1.000
    N3006    N        0.51935    0.66886    0.75141    1.000
    N3007    N        0.47455    0.53272    0.89380    1.000
    Si3008   Si       0.47688    0.53279    0.98659    1.000
    N3009    N        0.48003    0.59539    0.89702    1.000
    Si3010   Si       0.49940    0.63123    0.88015    1.000
    N3011    N        0.51657    0.52603    0.96628    1.000
    Si3012   Si       0.50688    0.67089    0.95310    1.000
    N3013    N        0.46616    0.68578    0.94832    1.000
    N3014    N        0.49327    0.74613    0.92129    1.000
    N3015    N        0.51367    0.65789    0.91087    1.000
    Si3016   Si       0.49569    0.78161    0.08193    1.000
    N3017    N        0.49625    0.82625    0.07583    1.000
    N3018    N        0.50419    0.82480    0.00797    1.000
    Si3019   Si       0.47346    0.83173    0.03798    1.000
    Si3020   Si       0.47413    0.84024    0.11473    1.000
    N3021    N        0.50739    0.87013    0.11913    1.000
    Si3022   Si       0.47149    0.95152    0.06196    1.000
    N3023    N        0.49473    0.94930    0.09852    1.000
    N3024    N        0.48317    0.92483    0.03127    1.000
    N3025    N        0.47523    0.99348    0.04638    1.000
    N3026    N        0.47839    0.78621    0.12279    1.000
    N3027    N        0.48762    0.87138    0.21275    1.000
    Si3028   Si       0.47224    0.77719    0.22510    1.000
    Si3029   Si       0.46092    0.85065    0.23892    1.000
    N3030    N        0.45955    0.83789    0.15647    1.000
    N3031    N        0.45721    0.76564    0.18653    1.000
    N3032    N        0.51688    0.76799    0.21810    1.000
    Si3033   Si       0.51078    0.00145    0.23790    1.000
    Si3034   Si       0.48636    0.96141    0.14026    1.000
    N3035    N        0.47592    0.93558    0.23591    1.000
    Si3036   Si       0.47585    0.91137    0.20086    1.000
    N3037    N        0.50339    0.00216    0.13892    1.000
    N3038    N        0.49709    0.92852    0.16838    1.000
    N3039    N        0.47765    0.86334    0.33348    1.000
    Si3040   Si       0.49998    0.82628    0.33924    1.000
    N3041    N        0.47133    0.79856    0.31773    1.000
    Si3042   Si       0.46558    0.75784    0.30193    1.000
    N3043    N        0.48400    0.81439    0.24668    1.000
    Si3044   Si       0.51230    0.92972    0.25778    1.000
    Si3045   Si       0.47585    0.89300    0.30272    1.000
    N3046    N        0.47088    0.99825    0.25607    1.000
    N3047    N        0.47245    0.97183    0.32359    1.000
    N3048    N        0.51089    0.91596    0.29943    1.000
    Si3049   Si       0.48934    0.97033    0.36446    1.000
    Si3050   Si       0.47052    0.00766    0.29896    1.000
    Si3051   Si       0.46540    0.84135    0.40488    1.000
    N3052    N        0.47874    0.84270    0.44510    1.000
    Si3053   Si       0.47687    0.80531    0.47157    1.000
    N3054    N        0.50260    0.83458    0.38243    1.000
    N3055    N        0.49244    0.75822    0.39980    1.000
    N3056    N        0.52064    0.79656    0.47707    1.000
    Si3057   Si       0.49691    0.88458    0.45168    1.000
    Si3058   Si       0.48426    0.95696    0.46160    1.000
    N3059    N        0.50462    0.96964    0.42306    1.000
    N3060    N        0.47036    0.99475    0.47543    1.000
    N3061    N        0.51281    0.89791    0.41240    1.000
    N3062    N        0.46052    0.92059    0.44856    1.000
    N3063    N        0.49396    0.79336    0.60254    1.000
    N3064    N        0.47639    0.86664    0.56526    1.000
    Si3065   Si       0.48699    0.85336    0.52450    1.000
    N3066    N        0.51113    0.76875    0.53763    1.000
    N3067    N        0.46189    0.82067    0.50976    1.000
    Si3068   Si       0.51518    0.88833    0.57054    1.000
    Si3069   Si       0.49158    0.95649    0.53966    1.000
    N3070    N        0.47511    0.96095    0.58061    1.000
    Si3071   Si       0.50084    0.94894    0.61320    1.000
    N3072    N        0.50281    0.90546    0.61521    1.000
    N3073    N        0.51508    0.92123    0.54415    1.000
    N3074    N        0.48117    0.88506    0.49730    1.000
    N3075    N        0.51710    0.85090    0.64208    1.000
    Si3076   Si       0.49779    0.82620    0.71161    1.000
    N3077    N        0.48070    0.81121    0.67414    1.000
    N3078    N        0.50858    0.86630    0.72256    1.000
    Si3079   Si       0.51108    0.80797    0.64094    1.000
    Si3080   Si       0.48074    0.87460    0.64028    1.000
    N3081    N        0.46130    0.81828    0.73580    1.000
    Si3082   Si       0.51425    0.75721    0.71775    1.000
    N3083    N        0.48816    0.94172    0.72799    1.000
    Si3084   Si       0.47205    0.00478    0.63552    1.000
    N3085    N        0.47343    0.89939    0.67445    1.000
    N3086    N        0.47655    0.96365    0.64792    1.000
    Si3087   Si       0.48100    0.89886    0.71796    1.000
    N3088    N        0.47042    0.85267    0.79338    1.000
    Si3089   Si       0.47185    0.78781    0.76804    1.000
    Si3090   Si       0.50827    0.87387    0.80366    1.000
    N3091    N        0.51297    0.78434    0.78336    1.000
    N3092    N        0.50532    0.88568    0.84593    1.000
    N3093    N        0.47530    0.95604    0.84247    1.000
    Si3094   Si       0.47580    0.99834    0.83599    1.000
    Si3095   Si       0.50728    0.92826    0.83405    1.000
    N3096    N        0.51002    0.91723    0.79110    1.000
    N3097    N        0.51701    0.00693    0.82158    1.000
    Si3098   Si       0.51261    0.85769    0.97980    1.000
    N3099    N        0.46242    0.79882    0.88844    1.000
    Si3100   Si       0.49714    0.77236    0.88706    1.000
    Si3101   Si       0.46901    0.82499    0.92498    1.000
    N3102    N        0.50810    0.83750    0.94040    1.000
    Si3103   Si       0.48029    0.79087    0.98940    1.000
    N3104    N        0.50460    0.75528    0.98611    1.000
    Si3105   Si       0.46978    0.89577    0.93725    1.000
    Si3106   Si       0.47097    0.00212    0.90812    1.000
    N3107    N        0.50629    0.90775    0.91910    1.000
    N3108    N        0.50389    0.97742    0.91522    1.000
    N3109    N        0.47649    0.88407    0.97799    1.000
    Si3110   Si       0.55374    0.07208    0.05518    1.000
    N3111    N        0.53818    0.09318    0.02117    1.000
    N3112    N        0.56265    0.10075    0.08600    1.000
    Si3113   Si       0.52618    0.01996    0.10488    1.000
    N3114    N        0.52386    0.04075    0.06831    1.000
    Si3115   Si       0.53658    0.13682    0.02886    1.000
    N3116    N        0.55627    0.17216    0.10113    1.000
    Si3117   Si       0.57178    0.21135    0.09357    1.000
    N3118    N        0.57524    0.15190    0.03900    1.000
    N3119    N        0.57334    0.24408    0.06486    1.000
    N3120    N        0.55693    0.23529    0.99924    1.000
    Si3121   Si       0.54483    0.09559    0.12364    1.000
    N3122    N        0.54345    0.05277    0.12993    1.000
    N3123    N        0.56355    0.10214    0.21524    1.000
    N3124    N        0.56828    0.11718    0.15328    1.000
    Si3125   Si       0.53004    0.07670    0.22074    1.000
    Si3126   Si       0.52623    0.02624    0.16738    1.000
    Si3127   Si       0.55032    0.22544    0.16465    1.000
    N3128    N        0.53229    0.18603    0.16535    1.000
    Si3129   Si       0.55837    0.15928    0.14274    1.000
    N3130    N        0.55332    0.23969    0.12379    1.000
    N3131    N        0.54341    0.08459    0.29697    1.000
    Si3132   Si       0.54386    0.04097    0.28846    1.000
    Si3133   Si       0.55731    0.09647    0.33625    1.000
    N3134    N        0.54621    0.06092    0.35660    1.000
    N3135    N        0.57243    0.00828    0.29380    1.000
    N3136    N        0.53462    0.13261    0.34861    1.000
    Si3137   Si       0.51786    0.11534    0.27906    1.000
    N3138    N        0.53393    0.03916    0.24581    1.000
    Si3139   Si       0.54704    0.25771    0.26848    1.000
    Si3140   Si       0.56526    0.22652    0.32168    1.000
    N3141    N        0.54598    0.14543    0.26478    1.000
    N3142    N        0.56178    0.21515    0.27674    1.000
    N3143    N        0.54280    0.20291    0.34839    1.000
    Si3144   Si       0.55774    0.16343    0.36651    1.000
    Si3145   Si       0.54695    0.18551    0.24836    1.000
    N3146    N        0.54983    0.02076    0.41507    1.000
    N3147    N        0.56694    0.11123    0.48179    1.000
    Si3148   Si       0.52623    0.09824    0.48815    1.000
    Si3149   Si       0.57096    0.03900    0.38408    1.000
    N3150    N        0.52494    0.22195    0.43228    1.000
    N3151    N        0.54432    0.17531    0.47165    1.000
    N3152    N        0.53858    0.16466    0.40633    1.000
    Si3153   Si       0.56274    0.20887    0.45166    1.000
    Si3154   Si       0.53677    0.22503    0.38789    1.000
    Si3155   Si       0.51754    0.15791    0.44197    1.000
    N3156    N        0.54839    0.06077    0.59228    1.000
    N3157    N        0.56705    0.04090    0.52949    1.000
    Si3158   Si       0.52278    0.03039    0.52446    1.000
    N3159    N        0.52531    0.12824    0.52069    1.000
    Si3160   Si       0.57273    0.21936    0.61196    1.000
    N3161    N        0.56120    0.17941    0.53946    1.000
    Si3162   Si       0.53124    0.18518    0.57084    1.000
    N3163    N        0.53619    0.22354    0.58956    1.000
    Si3164   Si       0.56221    0.15102    0.50342    1.000
    N3165    N        0.52701    0.14504    0.58797    1.000
    N3166    N        0.53670    0.02720    0.70433    1.000
    Si3167   Si       0.56341    0.06816    0.63400    1.000
    N3168    N        0.53108    0.11310    0.72195    1.000
    N3169    N        0.57302    0.02422    0.64541    1.000
    N3170    N        0.53189    0.08151    0.66221    1.000
    Si3171   Si       0.57320    0.01204    0.68894    1.000
    Si3172   Si       0.56866    0.11326    0.74094    1.000
    Si3173   Si       0.52137    0.11986    0.68072    1.000
    Si3174   Si       0.55836    0.14218    0.62004    1.000
    N3175    N        0.55086    0.20376    0.71432    1.000
    Si3176   Si       0.53061    0.25531    0.65901    1.000
    N3177    N        0.54687    0.15298    0.66125    1.000
    Si3178   Si       0.56657    0.18919    0.67528    1.000
    N3179    N        0.56138    0.22528    0.65386    1.000
    N3180    N        0.55635    0.10403    0.78035    1.000
    Si3181   Si       0.53987    0.06659    0.79569    1.000
    N3182    N        0.56969    0.03521    0.79647    1.000
    Si3183   Si       0.52560    0.03523    0.85850    1.000
    N3184    N        0.52076    0.07106    0.83536    1.000
    Si3185   Si       0.55298    0.14121    0.80354    1.000
    Si3186   Si       0.52803    0.18226    0.85231    1.000
    N3187    N        0.53316    0.16790    0.77411    1.000
    N3188    N        0.56279    0.20500    0.83803    1.000
    Si3189   Si       0.56665    0.18631    0.75157    1.000
    N3190    N        0.52565    0.14084    0.83696    1.000
    Si3191   Si       0.57184    0.23673    0.81051    1.000
    N3192    N        0.53434    0.25819    0.80481    1.000
    Si3193   Si       0.52747    0.09460    0.91265    1.000
    N3194    N        0.54212    0.05689    0.89530    1.000
    N3195    N        0.55748    0.12667    0.92305    1.000
    N3196    N        0.53847    0.01410    0.95359    1.000
    Si3197   Si       0.56618    0.19711    0.90876    1.000
    Si3198   Si       0.55999    0.14717    0.96219    1.000
    N3199    N        0.52217    0.14194    0.98711    1.000
    Si3200   Si       0.52213    0.23639    0.97363    1.000
    N3201    N        0.57061    0.18776    0.95175    1.000
    N3202    N        0.52586    0.18760    0.89401    1.000
    Si3203   Si       0.56039    0.33768    0.01198    1.000
    Si3204   Si       0.54935    0.27183    0.09455    1.000
    N3205    N        0.56879    0.36446    0.04841    1.000
    Si3206   Si       0.55313    0.26436    0.03195    1.000
    N3207    N        0.52242    0.27851    0.06158    1.000
    N3208    N        0.57431    0.30413    0.10158    1.000
    N3209    N        0.57565    0.29791    0.01626    1.000
    Si3210   Si       0.53469    0.38308    0.07107    1.000
    N3211    N        0.54950    0.40877    0.10197    1.000
    Si3212   Si       0.54971    0.45399    0.10029    1.000
    N3213    N        0.55071    0.46340    0.05670    1.000
    Si3214   Si       0.51961    0.44425    0.03274    1.000
    N3215    N        0.53910    0.35992    0.15663    1.000
    Si3216   Si       0.56504    0.33859    0.18386    1.000
    N3217    N        0.55743    0.29587    0.17891    1.000
    N3218    N        0.55491    0.34426    0.22505    1.000
    Si3219   Si       0.55592    0.39818    0.14242    1.000
    Si3220   Si       0.53177    0.44997    0.19970    1.000
    N3221    N        0.52622    0.42021    0.16824    1.000
    N3222    N        0.56953    0.45509    0.21879    1.000
    N3223    N        0.52463    0.48700    0.17855    1.000
    N3224    N        0.55178    0.26677    0.31236    1.000
    N3225    N        0.53406    0.31718    0.34326    1.000
    N3226    N        0.56689    0.34033    0.29562    1.000
    Si3227   Si       0.57622    0.30480    0.32116    1.000
    N3228    N        0.57226    0.28486    0.24722    1.000
    Si3229   Si       0.56927    0.38271    0.29662    1.000
    N3230    N        0.52556    0.38945    0.29585    1.000
    Si3231   Si       0.54237    0.49824    0.29235    1.000
    N3232    N        0.56589    0.46584    0.35713    1.000
    Si3233   Si       0.55529    0.43627    0.25507    1.000
    Si3234   Si       0.54638    0.43528    0.33153    1.000
    N3235    N        0.54984    0.45519    0.29231    1.000
    N3236    N        0.57534    0.40201    0.33419    1.000
    Si3237   Si       0.55741    0.50764    0.36210    1.000
    Si3238   Si       0.51905    0.31058    0.44245    1.000
    N3239    N        0.53681    0.34704    0.46257    1.000
    N3240    N        0.55074    0.29702    0.41755    1.000
    Si3241   Si       0.56248    0.37107    0.43505    1.000
    Si3242   Si       0.55652    0.32125    0.38039    1.000
    N3243    N        0.56002    0.36295    0.39242    1.000
    N3244    N        0.55171    0.41118    0.44544    1.000
    N3245    N        0.54289    0.33629    0.59389    1.000
    N3246    N        0.53705    0.32425    0.52823    1.000
    Si3247   Si       0.52273    0.35533    0.50275    1.000
    Si3248   Si       0.57701    0.36257    0.58652    1.000
    N3249    N        0.56180    0.40438    0.58475    1.000
    N3250    N        0.54282    0.45302    0.53772    1.000
    Si3251   Si       0.53279    0.41417    0.55394    1.000
    Si3252   Si       0.54471    0.49558    0.53814    1.000
    N3253    N        0.53842    0.39385    0.51575    1.000
    Si3254   Si       0.56422    0.43497    0.61474    1.000
    N3255    N        0.52545    0.45645    0.61914    1.000
    Si3256   Si       0.54800    0.43405    0.49679    1.000
    Si3257   Si       0.53803    0.34360    0.74479    1.000
    Si3258   Si       0.52626    0.32316    0.63121    1.000
    Si3259   Si       0.56331    0.31307    0.68928    1.000
    N3260    N        0.54905    0.34417    0.66207    1.000
    N3261    N        0.53313    0.28196    0.69236    1.000
    N3262    N        0.57624    0.33239    0.72496    1.000
    N3263    N        0.52020    0.28032    0.62515    1.000
    N3264    N        0.54928    0.45015    0.71963    1.000
    N3265    N        0.57065    0.49261    0.66917    1.000
    Si3266   Si       0.57528    0.44998    0.68606    1.000
    N3267    N        0.56797    0.41842    0.65640    1.000
    Si3268   Si       0.55944    0.36345    0.81045    1.000
    N3269    N        0.53448    0.36739    0.84796    1.000
    Si3270   Si       0.53125    0.29956    0.79650    1.000
    N3271    N        0.56791    0.32087    0.80423    1.000
    N3272    N        0.53592    0.37349    0.77667    1.000
    N3273    N        0.56138    0.43676    0.78720    1.000
    Si3274   Si       0.55972    0.46731    0.75797    1.000
    N3275    N        0.52417    0.49281    0.75596    1.000
    Si3276   Si       0.52502    0.41576    0.78532    1.000
    Si3277   Si       0.53378    0.50454    0.84406    1.000
    N3278    N        0.56799    0.51121    0.81787    1.000
    Si3279   Si       0.55353    0.38366    0.94961    1.000
    Si3280   Si       0.55735    0.34624    0.87793    1.000
    N3281    N        0.53692    0.30840    0.88521    1.000
    N3282    N        0.56683    0.37487    0.90847    1.000
    Si3283   Si       0.55650    0.27743    0.90959    1.000
    N3284    N        0.52759    0.26343    0.93952    1.000
    N3285    N        0.57175    0.35023    0.97236    1.000
    N3286    N        0.53119    0.45545    0.99128    1.000
    Si3287   Si       0.50998    0.48137    0.96442    1.000
    N3288    N        0.53698    0.47445    0.87440    1.000
    N3289    N        0.56483    0.48686    0.94387    1.000
    Si3290   Si       0.57249    0.47865    0.90264    1.000
    Si3291   Si       0.56169    0.54963    0.04811    1.000
    N3292    N        0.53162    0.56185    0.07354    1.000
    N3293    N        0.56037    0.52566    0.01282    1.000
    Si3294   Si       0.54644    0.57218    0.11414    1.000
    N3295    N        0.54612    0.71658    0.09262    1.000
    Si3296   Si       0.56135    0.67420    0.08678    1.000
    Si3297   Si       0.56704    0.65495    0.00752    1.000
    Si3298   Si       0.56284    0.75158    0.07650    1.000
    N3299    N        0.56999    0.64949    0.05161    1.000
    N3300    N        0.52130    0.65922    0.10489    1.000
    Si3301   Si       0.54541    0.52497    0.17539    1.000
    N3302    N        0.55704    0.53412    0.13259    1.000
    Si3303   Si       0.56306    0.62741    0.18654    1.000
    Si3304   Si       0.55831    0.72914    0.13258    1.000
    N3305    N        0.54933    0.71172    0.21727    1.000
    Si3306   Si       0.52597    0.66955    0.21619    1.000
    N3307    N        0.52471    0.64909    0.17720    1.000
    N3308    N        0.56432    0.64504    0.22728    1.000
    N3309    N        0.52282    0.73905    0.15361    1.000
    Si3310   Si       0.51680    0.73396    0.19468    1.000
    N3311    N        0.53664    0.57642    0.26316    1.000
    Si3312   Si       0.54210    0.61930    0.25575    1.000
    N3313    N        0.52796    0.51467    0.32998    1.000
    N3314    N        0.55278    0.57150    0.36689    1.000
    N3315    N        0.56025    0.63506    0.29300    1.000
    Si3316   Si       0.57806    0.56138    0.27617    1.000
    N3317    N        0.54117    0.69109    0.33410    1.000
    Si3318   Si       0.55204    0.65082    0.33352    1.000
    Si3319   Si       0.54788    0.72892    0.25718    1.000
    Si3320   Si       0.56299    0.72099    0.35614    1.000
    Si3321   Si       0.55154    0.59377    0.46826    1.000
    N3322    N        0.53774    0.51644    0.39933    1.000
    Si3323   Si       0.54544    0.55736    0.40892    1.000
    N3324    N        0.57398    0.57551    0.43567    1.000
    N3325    N        0.55316    0.71920    0.39749    1.000
    Si3326   Si       0.55912    0.66583    0.43859    1.000
    N3327    N        0.56815    0.63376    0.46999    1.000
    N3328    N        0.55212    0.58578    0.60023    1.000
    N3329    N        0.54639    0.51670    0.57693    1.000
    Si3330   Si       0.57228    0.54919    0.58794    1.000
    N3331    N        0.55823    0.56491    0.50124    1.000
    N3332    N        0.54700    0.67660    0.57553    1.000
    N3333    N        0.54213    0.71234    0.51882    1.000
    Si3334   Si       0.53291    0.71530    0.56140    1.000
    N3335    N        0.55168    0.74774    0.58420    1.000
    Si3336   Si       0.52409    0.66273    0.60882    1.000
    Si3337   Si       0.52954    0.75966    0.49863    1.000
    N3338    N        0.55121    0.55768    0.68483    1.000
    Si3339   Si       0.52882    0.51330    0.67884    1.000
    N3340    N        0.54329    0.68119    0.69265    1.000
    Si3341   Si       0.54971    0.69174    0.73342    1.000
    N3342    N        0.54330    0.73276    0.74382    1.000
    N3343    N        0.57429    0.72082    0.64659    1.000
    N3344    N        0.55680    0.64844    0.63398    1.000
    Si3345   Si       0.57319    0.67980    0.66114    1.000
    N3346    N        0.51876    0.74349    0.67735    1.000
    N3347    N        0.56166    0.61870    0.77642    1.000
    N3348    N        0.52939    0.55806    0.78047    1.000
    N3349    N        0.53383    0.54560    0.86125    1.000
    Si3350   Si       0.57054    0.54593    0.79084    1.000
    N3351    N        0.53520    0.61599    0.86178    1.000
    Si3352   Si       0.52188    0.60293    0.76956    1.000
    Si3353   Si       0.57856    0.55032    0.86099    1.000
    N3354    N        0.56538    0.73684    0.80877    1.000
    Si3355   Si       0.53544    0.72049    0.83689    1.000
    N3356    N        0.55484    0.70601    0.87235    1.000
    N3357    N        0.51779    0.75790    0.84961    1.000
    Si3358   Si       0.55899    0.52553    0.96850    1.000
    Si3359   Si       0.57486    0.62082    0.87791    1.000
    N3360    N        0.53786    0.70323    0.94555    1.000
    Si3361   Si       0.52381    0.74260    0.95104    1.000
    Si3362   Si       0.55078    0.68206    0.90792    1.000
    N3363    N        0.52574    0.65145    0.98755    1.000
    N3364    N        0.55301    0.84912    0.05411    1.000
    Si3365   Si       0.53409    0.84588    0.09386    1.000
    N3366    N        0.53543    0.78023    0.06074    1.000
    Si3367   Si       0.54089    0.81276    0.03311    1.000
    N3368    N        0.56548    0.83236    0.12246    1.000
    N3369    N        0.57637    0.80128    0.01133    1.000
    N3370    N        0.54245    0.93139    0.05246    1.000
    N3371    N        0.55327    0.98633    0.09794    1.000
    Si3372   Si       0.53676    0.94609    0.09292    1.000
    N3373    N        0.54284    0.99746    0.01678    1.000
    Si3374   Si       0.52297    0.92179    0.01481    1.000
    Si3375   Si       0.53048    0.86794    0.21819    1.000
    N3376    N        0.54445    0.87530    0.17767    1.000
    N3377    N        0.55049    0.83576    0.24064    1.000
    N3378    N        0.54014    0.90522    0.23607    1.000
    N3379    N        0.55206    0.92119    0.12586    1.000
    Si3380   Si       0.52329    0.89789    0.14759    1.000
    Si3381   Si       0.56890    0.98115    0.19155    1.000
    N3382    N        0.52779    0.99378    0.19785    1.000
    Si3383   Si       0.55545    0.78447    0.31586    1.000
    N3384    N        0.54122    0.82621    0.32086    1.000
    N3385    N        0.54254    0.76850    0.27724    1.000
    Si3386   Si       0.57182    0.85522    0.32738    1.000
    N3387    N        0.54576    0.76216    0.35063    1.000
    N3388    N        0.54909    0.88527    0.35161    1.000
    Si3389   Si       0.52554    0.79955    0.24873    1.000
    Si3390   Si       0.54124    0.92219    0.33181    1.000
    N3391    N        0.53117    0.96880    0.25756    1.000
    N3392    N        0.52675    0.94764    0.36365    1.000
    N3393    N        0.57945    0.93920    0.32338    1.000
    Si3394   Si       0.56164    0.79531    0.46210    1.000
    N3395    N        0.56120    0.77281    0.42407    1.000
    Si3396   Si       0.53254    0.86758    0.38889    1.000
    N3397    N        0.57028    0.85949    0.40888    1.000
    Si3398   Si       0.57557    0.86643    0.45241    1.000
    N3399    N        0.53701    0.87852    0.46850    1.000
    Si3400   Si       0.53407    0.76036    0.39477    1.000
    N3401    N        0.57510    0.76234    0.49244    1.000
    N3402    N        0.57276    0.94673    0.42001    1.000
    N3403    N        0.56761    0.99271    0.47717    1.000
    N3404    N        0.51851    0.93908    0.48238    1.000
    Si3405   Si       0.53062    0.93870    0.40604    1.000
    N3406    N        0.55906    0.81376    0.56962    1.000
    Si3407   Si       0.52906    0.78363    0.57631    1.000
    N3408    N        0.53069    0.86302    0.53298    1.000
    Si3409   Si       0.56659    0.85525    0.55747    1.000
    N3410    N        0.55390    0.88090    0.58949    1.000
    Si3411   Si       0.52348    0.89933    0.50545    1.000
    Si3412   Si       0.54733    0.96480    0.50276    1.000
    Si3413   Si       0.55140    0.00048    0.61358    1.000
    N3414    N        0.51879    0.98868    0.52691    1.000
    N3415    N        0.57656    0.84865    0.71703    1.000
    N3416    N        0.53035    0.79737    0.71769    1.000
    N3417    N        0.54889    0.79002    0.63895    1.000
    Si3418   Si       0.57480    0.80470    0.72028    1.000
    Si3419   Si       0.54804    0.87274    0.74190    1.000
    Si3420   Si       0.55879    0.75739    0.66608    1.000
    Si3421   Si       0.54035    0.88643    0.62939    1.000
    N3422    N        0.54283    0.95778    0.62291    1.000
    Si3423   Si       0.57041    0.94298    0.65296    1.000
    N3424    N        0.55985    0.90267    0.66303    1.000
    N3425    N        0.55236    0.91601    0.73736    1.000
    N3426    N        0.57242    0.96918    0.68750    1.000
    N3427    N        0.54155    0.85807    0.78295    1.000
    Si3428   Si       0.55295    0.78310    0.85885    1.000
    N3429    N        0.57301    0.81731    0.83741    1.000
    Si3430   Si       0.57064    0.82824    0.79294    1.000
    Si3431   Si       0.54754    0.76147    0.77602    1.000
    Si3432   Si       0.55082    0.99481    0.80021    1.000
    N3433    N        0.53104    0.97999    0.76277    1.000
    N3434    N        0.53895    0.93215    0.86505    1.000
    Si3435   Si       0.56944    0.96060    0.85810    1.000
    Si3436   Si       0.52151    0.93929    0.75619    1.000
    N3437    N        0.57320    0.96228    0.81411    1.000
    N3438    N        0.56668    0.75861    0.95821    1.000
    Si3439   Si       0.54331    0.83223    0.91602    1.000
    N3440    N        0.53234    0.79769    0.89305    1.000
    N3441    N        0.55548    0.86328    0.88830    1.000
    N3442    N        0.55501    0.99853    0.87111    1.000
    Si3443   Si       0.52165    0.94332    0.93606    1.000
    Si3444   Si       0.55387    0.97923    0.97711    1.000
    N3445    N        0.56408    0.96068    0.93368    1.000
    Si3446   Si       0.54764    0.99675    0.91264    1.000
    N3447    N        0.54272    0.88590    0.99218    1.000
    Si3448   Si       0.52656    0.89594    0.88269    1.000
    N3449    N        0.52037    0.94740    0.97956    1.000
    N3450    N        0.61363    0.02367    0.10589    1.000
    N3451    N        0.59017    0.04614    0.04545    1.000
    Si3452   Si       0.62549    0.04828    0.06963    1.000
    Si3453   Si       0.58348    0.00843    0.02759    1.000
    N3454    N        0.62190    0.14361    0.09576    1.000
    Si3455   Si       0.60959    0.15264    0.01383    1.000
    N3456    N        0.61471    0.21102    0.09322    1.000
    N3457    N        0.62070    0.19281    0.00119    1.000
    Si3458   Si       0.58036    0.14143    0.07959    1.000
    N3459    N        0.63160    0.25299    0.02067    1.000
    Si3460   Si       0.63217    0.23527    0.06393    1.000
    Si3461   Si       0.58734    0.04315    0.13519    1.000
    Si3462   Si       0.59568    0.09689    0.18487    1.000
    Si3463   Si       0.61376    0.02407    0.19510    1.000
    N3464    N        0.61436    0.06352    0.21240    1.000
    N3465    N        0.61349    0.07076    0.15150    1.000
    N3466    N        0.61755    0.13323    0.20225    1.000
    Si3467   Si       0.58340    0.13083    0.24026    1.000
    N3468    N        0.58004    0.01577    0.16778    1.000
    Si3469   Si       0.60895    0.17831    0.19617    1.000
    N3470    N        0.58823    0.17634    0.23367    1.000
    N3471    N        0.58142    0.23295    0.19390    1.000
    N3472    N        0.59918    0.17716    0.15375    1.000
    Si3473   Si       0.62692    0.17853    0.11985    1.000
    N3474    N        0.60023    0.10867    0.33721    1.000
    N3475    N        0.61251    0.11055    0.26450    1.000
    Si3476   Si       0.62198    0.12622    0.30249    1.000
    Si3477   Si       0.62539    0.08998    0.36631    1.000
    Si3478   Si       0.63230    0.01445    0.35158    1.000
    N3479    N        0.59136    0.00794    0.36006    1.000
    N3480    N        0.61130    0.16824    0.29953    1.000
    N3481    N        0.60943    0.22859    0.32399    1.000
    Si3482   Si       0.60152    0.19921    0.26975    1.000
    Si3483   Si       0.62486    0.18980    0.33532    1.000
    N3484    N        0.62583    0.23396    0.25898    1.000
    Si3485   Si       0.63096    0.25456    0.29679    1.000
    N3486    N        0.60033    0.17776    0.36869    1.000
    Si3487   Si       0.62168    0.04698    0.43173    1.000
    N3488    N        0.60056    0.05516    0.46930    1.000
    Si3489   Si       0.60763    0.09843    0.47685    1.000
    N3490    N        0.60225    0.06499    0.39653    1.000
    N3491    N        0.62815    0.12060    0.44620    1.000
    N3492    N        0.57871    0.24750    0.46500    1.000
    N3493    N        0.57653    0.23607    0.39550    1.000
    Si3494   Si       0.62487    0.16266    0.46056    1.000
    Si3495   Si       0.61016    0.20654    0.39763    1.000
    N3496    N        0.60000    0.19047    0.43690    1.000
    Si3497   Si       0.61403    0.10158    0.59484    1.000
    N3498    N        0.61968    0.06242    0.57799    1.000
    Si3499   Si       0.58191    0.04376    0.56965    1.000
    N3500    N        0.63505    0.09398    0.51046    1.000
    N3501    N        0.60622    0.13083    0.56318    1.000
    Si3502   Si       0.59104    0.02261    0.49849    1.000
    Si3503   Si       0.63201    0.13174    0.53012    1.000
    Si3504   Si       0.61891    0.24817    0.56573    1.000
    Si3505   Si       0.59582    0.17378    0.56514    1.000
    N3506    N        0.62538    0.20527    0.55798    1.000
    N3507    N        0.60301    0.24890    0.60552    1.000
    N3508    N        0.60953    0.15627    0.50118    1.000
    N3509    N        0.57994    0.17633    0.60482    1.000
    N3510    N        0.58191    0.10477    0.62468    1.000
    Si3511   Si       0.62734    0.06556    0.71189    1.000
    N3512    N        0.60774    0.02639    0.71322    1.000
    N3513    N        0.59835    0.09884    0.71361    1.000
    Si3514   Si       0.61447    0.14017    0.70626    1.000
    N3515    N        0.63629    0.24318    0.66800    1.000
    N3516    N        0.60806    0.17515    0.68127    1.000
    N3517    N        0.59165    0.15239    0.74236    1.000
    Si3518   Si       0.60901    0.03958    0.81012    1.000
    N3519    N        0.62173    0.07929    0.81866    1.000
    Si3520   Si       0.62906    0.12372    0.81312    1.000
    N3521    N        0.62460    0.01353    0.84286    1.000
    Si3522   Si       0.63258    0.08440    0.86042    1.000
    N3523    N        0.58669    0.21637    0.77418    1.000
    N3524    N        0.59451    0.14950    0.81737    1.000
    Si3525   Si       0.59973    0.18273    0.84466    1.000
    Si3526   Si       0.62332    0.22903    0.75443    1.000
    Si3527   Si       0.62101    0.10087    0.95867    1.000
    N3528    N        0.60990    0.02160    0.90779    1.000
    Si3529   Si       0.58387    0.05819    0.90766    1.000
    N3530    N        0.59699    0.09290    0.88308    1.000
    N3531    N        0.59946    0.06615    0.94839    1.000
    Si3532   Si       0.61672    0.02602    0.95168    1.000
    N3533    N        0.59604    0.13090    0.98001    1.000
    Si3534   Si       0.59614    0.13127    0.90191    1.000
    N3535    N        0.63337    0.12511    0.92595    1.000
    N3536    N        0.57800    0.23999    0.90268    1.000
    Si3537   Si       0.59088    0.21485    0.97967    1.000
    N3538    N        0.59071    0.16999    0.88491    1.000
    N3539    N        0.61373    0.24618    0.96162    1.000
    Si3540   Si       0.61222    0.36650    0.04945    1.000
    Si3541   Si       0.61570    0.30867    0.09909    1.000
    N3542    N        0.63159    0.33241    0.06488    1.000
    Si3543   Si       0.60656    0.27668    0.99202    1.000
    N3544    N        0.62569    0.38782    0.01292    1.000
    N3545    N        0.59810    0.46999    0.00611    1.000
    N3546    N        0.58413    0.47283    0.11893    1.000
    N3547    N        0.63449    0.39921    0.07386    1.000
    Si3548   Si       0.57540    0.49141    0.03674    1.000
    N3549    N        0.62735    0.28057    0.20231    1.000
    N3550    N        0.60744    0.34735    0.18030    1.000
    Si3551   Si       0.58434    0.27378    0.20595    1.000
    N3552    N        0.63668    0.30572    0.13609    1.000
    Si3553   Si       0.62598    0.38661    0.17373    1.000
    N3554    N        0.62138    0.47667    0.17993    1.000
    N3555    N        0.59595    0.41153    0.15260    1.000
    Si3556   Si       0.60062    0.48583    0.21738    1.000
    Si3557   Si       0.61359    0.45106    0.14469    1.000
    N3558    N        0.61390    0.29361    0.29828    1.000
    N3559    N        0.59562    0.31316    0.35997    1.000
    N3560    N        0.61980    0.34980    0.25742    1.000
    Si3561   Si       0.58006    0.32754    0.25591    1.000
    Si3562   Si       0.63622    0.32802    0.35763    1.000
    Si3563   Si       0.61508    0.49666    0.29507    1.000
    N3564    N        0.62606    0.46373    0.32627    1.000
    Si3565   Si       0.60672    0.45523    0.36382    1.000
    N3566    N        0.58532    0.40702    0.26225    1.000
    Si3567   Si       0.62513    0.39401    0.25329    1.000
    N3568    N        0.62415    0.48323    0.25436    1.000
    Si3569   Si       0.59181    0.38366    0.37096    1.000
    N3570    N        0.59642    0.31160    0.49011    1.000
    N3571    N        0.60356    0.36986    0.44737    1.000
    N3572    N        0.62188    0.28219    0.42436    1.000
    Si3573   Si       0.62072    0.34457    0.47747    1.000
    N3574    N        0.63031    0.36484    0.37963    1.000
    Si3575   Si       0.58106    0.26734    0.42506    1.000
    Si3576   Si       0.61379    0.40595    0.47387    1.000
    N3577    N        0.60635    0.41949    0.38977    1.000
    N3578    N        0.59241    0.43713    0.49156    1.000
    Si3579   Si       0.63696    0.39856    0.40982    1.000
    N3580    N        0.60138    0.34236    0.55617    1.000
    N3581    N        0.59290    0.27042    0.53904    1.000
    Si3582   Si       0.58029    0.31183    0.53423    1.000
    N3583    N        0.62592    0.37913    0.50441    1.000
    Si3584   Si       0.63792    0.36426    0.54461    1.000
    Si3585   Si       0.60003    0.26606    0.49626    1.000
    Si3586   Si       0.61081    0.46923    0.51212    1.000
    N3587    N        0.59957    0.46188    0.61339    1.000
    N3588    N        0.58677    0.50226    0.52543    1.000
    N3589    N        0.60305    0.36578    0.62094    1.000
    Si3590   Si       0.58113    0.37777    0.65766    1.000
    N3591    N        0.61499    0.26627    0.73747    1.000
    Si3592   Si       0.61983    0.27132    0.63798    1.000
    N3593    N        0.59673    0.29284    0.67035    1.000
    Si3594   Si       0.61765    0.34330    0.71696    1.000
    Si3595   Si       0.62632    0.27598    0.69746    1.000
    N3596    N        0.61367    0.37511    0.68868    1.000
    N3597    N        0.61718    0.44307    0.70091    1.000
    Si3598   Si       0.62726    0.46071    0.73915    1.000
    Si3599   Si       0.60129    0.49748    0.63958    1.000
    N3600    N        0.59528    0.33454    0.86053    1.000
    Si3601   Si       0.60490    0.30929    0.82673    1.000
    Si3602   Si       0.62089    0.36598    0.84359    1.000
    N3603    N        0.60174    0.26586    0.82099    1.000
    N3604    N        0.59541    0.38577    0.81495    1.000
    Si3605   Si       0.60234    0.42481    0.79912    1.000
    N3606    N        0.61244    0.45520    0.82859    1.000
    Si3607   Si       0.60577    0.49152    0.80721    1.000
    N3608    N        0.59925    0.48299    0.76306    1.000
    N3609    N        0.63108    0.42767    0.76756    1.000
    Si3610   Si       0.63372    0.44207    0.86985    1.000
    N3611    N        0.62802    0.36983    0.93869    1.000
    N3612    N        0.59255    0.29726    0.92313    1.000
    Si3613   Si       0.60372    0.33352    0.94829    1.000
    N3614    N        0.62857    0.31046    0.97866    1.000
    Si3615   Si       0.61442    0.25711    0.91999    1.000
    N3616    N        0.59262    0.43952    0.89472    1.000
    Si3617   Si       0.60324    0.39798    0.90820    1.000
    N3618    N        0.58355    0.41442    0.95865    1.000
    N3619    N        0.63054    0.39584    0.87398    1.000
    Si3620   Si       0.62179    0.39799    0.97305    1.000
    Si3621   Si       0.57258    0.45411    0.97430    1.000
    Si3622   Si       0.59104    0.61522    0.06635    1.000
    N3623    N        0.58966    0.52002    0.06722    1.000
    Si3624   Si       0.62780    0.54370    0.04538    1.000
    Si3625   Si       0.59128    0.51707    0.11025    1.000
    N3626    N        0.59165    0.57911    0.04197    1.000
    N3627    N        0.57939    0.59755    0.10576    1.000
    N3628    N        0.62885    0.55304    0.00038    1.000
    Si3629   Si       0.59391    0.58153    0.99641    1.000
    N3630    N        0.63246    0.63257    0.07005    1.000
    N3631    N        0.60201    0.68175    0.10165    1.000
    Si3632   Si       0.61454    0.71600    0.01952    1.000
    N3633    N        0.59283    0.74674    0.04530    1.000
    N3634    N        0.58382    0.69520    0.99588    1.000
    N3635    N        0.57934    0.52061    0.20169    1.000
    N3636    N        0.63071    0.52602    0.12599    1.000
    Si3637   Si       0.60130    0.60657    0.14310    1.000
    Si3638   Si       0.59993    0.55878    0.20268    1.000
    N3639    N        0.58055    0.58767    0.17689    1.000
    N3640    N        0.59608    0.57777    0.24203    1.000
    Si3641   Si       0.62916    0.60613    0.24468    1.000
    N3642    N        0.59005    0.64492    0.15605    1.000
    Si3643   Si       0.58973    0.71920    0.20175    1.000
    N3644    N        0.58876    0.71355    0.15862    1.000
    N3645    N        0.60989    0.75370    0.21966    1.000
    N3646    N        0.61752    0.69031    0.22524    1.000
    Si3647   Si       0.61151    0.67942    0.14519    1.000
    N3648    N        0.60350    0.57941    0.30905    1.000
    Si3649   Si       0.59385    0.56905    0.35115    1.000
    Si3650   Si       0.60062    0.62242    0.30518    1.000
    N3651    N        0.59860    0.52685    0.35986    1.000
    N3652    N        0.57981    0.52025    0.28741    1.000
    N3653    N        0.59419    0.63885    0.34360    1.000
    N3654    N        0.62070    0.63969    0.27172    1.000
    N3655    N        0.60475    0.72162    0.34240    1.000
    Si3656   Si       0.60517    0.73524    0.30211    1.000
    Si3657   Si       0.59019    0.66938    0.25532    1.000
    N3658    N        0.58203    0.70846    0.27594    1.000
    Si3659   Si       0.63378    0.73602    0.37356    1.000
    N3660    N        0.62835    0.53592    0.42494    1.000
    N3661    N        0.62009    0.59140    0.38141    1.000
    Si3662   Si       0.61503    0.57634    0.42634    1.000
    N3663    N        0.62682    0.55267    0.48877    1.000
    Si3664   Si       0.63377    0.51989    0.38354    1.000
    Si3665   Si       0.62228    0.68118    0.42540    1.000
    Si3666   Si       0.60548    0.64856    0.48988    1.000
    Si3667   Si       0.61209    0.63472    0.38052    1.000
    N3668    N        0.58765    0.65815    0.40872    1.000
    Si3669   Si       0.57970    0.73260    0.43032    1.000
    N3670    N        0.61709    0.72310    0.41170    1.000
    N3671    N        0.57542    0.70131    0.46092    1.000
    N3672    N        0.59810    0.56338    0.55478    1.000
    Si3673   Si       0.59373    0.54343    0.51566    1.000
    Si3674   Si       0.61797    0.60095    0.55282    1.000
    N3675    N        0.62061    0.61566    0.51223    1.000
    N3676    N        0.60372    0.63372    0.58163    1.000
    Si3677   Si       0.57777    0.61673    0.61443    1.000
    N3678    N        0.60669    0.70705    0.58440    1.000
    N3679    N        0.59478    0.67379    0.52446    1.000
    Si3680   Si       0.58474    0.73681    0.60895    1.000
    Si3681   Si       0.58869    0.67022    0.56644    1.000
    N3682    N        0.62214    0.73192    0.52264    1.000
    Si3683   Si       0.58504    0.71446    0.50324    1.000
    N3684    N        0.59753    0.53561    0.62016    1.000
    N3685    N        0.59534    0.60966    0.71361    1.000
    Si3686   Si       0.61996    0.62294    0.68033    1.000
    Si3687   Si       0.62156    0.56246    0.64414    1.000
    N3688    N        0.60619    0.60348    0.64441    1.000
    N3689    N        0.62081    0.55451    0.68677    1.000
    Si3690   Si       0.58700    0.56660    0.71193    1.000
    Si3691   Si       0.62858    0.75550    0.68475    1.000
    N3692    N        0.61269    0.66600    0.67295    1.000
    N3693    N        0.63435    0.72153    0.71110    1.000
    Si3694   Si       0.62420    0.69690    0.74515    1.000
    N3695    N        0.58814    0.67530    0.74449    1.000
    Si3696   Si       0.59009    0.61294    0.80955    1.000
    N3697    N        0.62280    0.62173    0.78218    1.000
    N3698    N        0.58919    0.57117    0.82207    1.000
    N3699    N        0.59017    0.54700    0.75265    1.000
    Si3700   Si       0.63068    0.52583    0.75587    1.000
    N3701    N        0.63525    0.52070    0.79902    1.000
    N3702    N        0.59760    0.63937    0.84447    1.000
    Si3703   Si       0.59384    0.63403    0.75163    1.000
    N3704    N        0.62054    0.70801    0.84696    1.000
    Si3705   Si       0.60843    0.73391    0.81272    1.000
    N3706    N        0.63153    0.72569    0.77690    1.000
    Si3707   Si       0.63179    0.66538    0.84875    1.000
    N3708    N        0.63558    0.60707    0.94094    1.000
    N3709    N        0.59403    0.51182    0.88245    1.000
    Si3710   Si       0.60790    0.57549    0.92935    1.000
    N3711    N        0.58976    0.58084    0.89012    1.000
    N3712    N        0.59568    0.62427    0.99258    1.000
    N3713    N        0.63559    0.54183    0.92637    1.000
    Si3714   Si       0.63346    0.51443    0.89358    1.000
    N3715    N        0.57915    0.56431    0.96026    1.000
    Si3716   Si       0.57877    0.71647    0.95851    1.000
    N3717    N        0.60010    0.71014    0.92118    1.000
    N3718    N        0.57958    0.64975    0.91184    1.000
    Si3719   Si       0.59592    0.72160    0.88056    1.000
    Si3720   Si       0.61602    0.66974    0.92408    1.000
    Si3721   Si       0.60933    0.78719    0.03848    1.000
    N3722    N        0.61485    0.82587    0.05907    1.000
    Si3723   Si       0.59337    0.85996    0.04175    1.000
    N3724    N        0.60753    0.86513    0.00073    1.000
    N3725    N        0.57682    0.76709    0.11539    1.000
    Si3726   Si       0.59723    0.98370    0.09511    1.000
    N3727    N        0.59893    0.97586    0.05125    1.000
    N3728    N        0.60374    0.90193    0.05358    1.000
    Si3729   Si       0.58474    0.93725    0.04126    1.000
    N3730    N        0.61223    0.95341    0.12053    1.000
    N3731    N        0.58873    0.93860    0.99660    1.000
    Si3732   Si       0.57604    0.85328    0.15956    1.000
    Si3733   Si       0.59419    0.80104    0.13355    1.000
    Si3734   Si       0.61742    0.79465    0.20904    1.000
    N3735    N        0.59156    0.81441    0.17620    1.000
    N3736    N        0.63383    0.81285    0.12415    1.000
    Si3737   Si       0.57978    0.91348    0.22286    1.000
    N3738    N        0.60660    0.88105    0.22992    1.000
    N3739    N        0.58116    0.93901    0.18807    1.000
    N3740    N        0.60579    0.88478    0.15435    1.000
    Si3741   Si       0.58950    0.92567    0.14729    1.000
    N3742    N        0.59656    0.99495    0.22378    1.000
    N3743    N        0.60575    0.83669    0.34998    1.000
    N3744    N        0.59880    0.77769    0.31132    1.000
    Si3745   Si       0.62702    0.80065    0.33368    1.000
    N3746    N        0.58648    0.87546    0.29093    1.000
    Si3747   Si       0.58941    0.84905    0.25402    1.000
    N3748    N        0.61861    0.81800    0.24861    1.000
    Si3749   Si       0.60115    0.91820    0.29172    1.000
    N3750    N        0.59258    0.94090    0.25626    1.000
    Si3751   Si       0.58744    0.98144    0.32609    1.000
    N3752    N        0.62892    0.98320    0.31900    1.000
    Si3753   Si       0.57304    0.97969    0.25914    1.000
    Si3754   Si       0.62995    0.81895    0.45904    1.000
    N3755    N        0.58863    0.82675    0.46518    1.000
    Si3756   Si       0.60809    0.85390    0.39011    1.000
    N3757    N        0.63836    0.77967    0.47422    1.000
    N3758    N        0.63597    0.83011    0.41588    1.000
    N3759    N        0.62685    0.89414    0.39408    1.000
    Si3760   Si       0.60668    0.92267    0.42346    1.000
    N3761    N        0.61670    0.00524    0.42694    1.000
    N3762    N        0.60632    0.89575    0.45728    1.000
    Si3763   Si       0.57492    0.98897    0.43444    1.000
    N3764    N        0.60226    0.87166    0.54008    1.000
    N3765    N        0.61590    0.80160    0.53976    1.000
    Si3766   Si       0.60040    0.80244    0.58133    1.000
    N3767    N        0.61612    0.83752    0.60054    1.000
    N3768    N        0.61716    0.76934    0.60202    1.000
    Si3769   Si       0.61579    0.77253    0.50949    1.000
    Si3770   Si       0.63415    0.84133    0.53318    1.000
    Si3771   Si       0.61001    0.91431    0.53766    1.000
    N3772    N        0.61679    0.94004    0.57245    1.000
    Si3773   Si       0.59797    0.97397    0.55055    1.000
    N3774    N        0.61923    0.99907    0.52036    1.000
    N3775    N        0.57922    0.00004    0.57955    1.000
    N3776    N        0.57789    0.94483    0.52551    1.000
    Si3777   Si       0.63691    0.93894    0.60927    1.000
    N3778    N        0.58706    0.77222    0.69416    1.000
    N3779    N        0.62325    0.87304    0.65991    1.000
    Si3780   Si       0.58793    0.87781    0.68599    1.000
    Si3781   Si       0.62676    0.00034    0.74147    1.000
    N3782    N        0.61333    0.93964    0.64413    1.000
    N3783    N        0.61199    0.91043    0.70780    1.000
    Si3784   Si       0.58403    0.94222    0.72117    1.000
    Si3785   Si       0.63601    0.89286    0.74072    1.000
    Si3786   Si       0.61701    0.79275    0.85251    1.000
    Si3787   Si       0.62276    0.79787    0.77834    1.000
    N3788    N        0.61563    0.83867    0.79121    1.000
    Si3789   Si       0.58618    0.85212    0.85988    1.000
    N3790    N        0.62218    0.77480    0.81334    1.000
    Si3791   Si       0.63225    0.87528    0.80486    1.000
    N3792    N        0.58034    0.79352    0.76406    1.000
    N3793    N        0.61399    0.88369    0.84387    1.000
    N3794    N        0.61275    0.90158    0.77660    1.000
    Si3795   Si       0.60406    0.94262    0.78825    1.000
    N3796    N        0.60622    0.96345    0.75050    1.000
    Si3797   Si       0.63151    0.92331    0.85414    1.000
    N3798    N        0.63679    0.94883    0.81696    1.000
    N3799    N        0.59159    0.76258    0.87026    1.000
    N3800    N        0.61489    0.82862    0.88371    1.000
    Si3801   Si       0.58737    0.79512    0.96997    1.000
    Si3802   Si       0.60519    0.85554    0.92413    1.000
    N3803    N        0.63083    0.79298    0.96895    1.000
    N3804    N        0.57552    0.82944    0.94381    1.000
    Si3805   Si       0.60162    0.94029    0.92202    1.000
    N3806    N        0.63020    0.96394    0.94334    1.000
    Si3807   Si       0.62222    0.96585    0.98750    1.000
    N3808    N        0.60361    0.94318    0.87918    1.000
    N3809    N        0.59737    0.00330    0.98535    1.000
    N3810    N        0.59384    0.89935    0.93681    1.000
    Si3811   Si       0.58265    0.89541    0.98116    1.000
    N3812    N        0.65927    0.02049    0.06614    1.000
    Si3813   Si       0.65206    0.12231    0.06980    1.000
    Si3814   Si       0.66121    0.02070    0.11035    1.000
    Si3815   Si       0.67755    0.12254    0.00044    1.000
    N3816    N        0.64403    0.08363    0.08674    1.000
    N3817    N        0.64516    0.13109    0.02845    1.000
    N3818    N        0.69099    0.13508    0.08169    1.000
    N3819    N        0.67052    0.21545    0.05140    1.000
    Si3820   Si       0.65648    0.21790    0.00917    1.000
    N3821    N        0.68290    0.05281    0.12986    1.000
    N3822    N        0.67103    0.09399    0.22264    1.000
    N3823    N        0.66492    0.11735    0.15138    1.000
    Si3824   Si       0.65041    0.08366    0.12973    1.000
    Si3825   Si       0.66017    0.12585    0.19567    1.000
    Si3826   Si       0.68867    0.19652    0.21148    1.000
    Si3827   Si       0.63977    0.24258    0.21967    1.000
    N3828    N        0.68416    0.24794    0.22162    1.000
    N3829    N        0.66857    0.18502    0.12895    1.000
    N3830    N        0.64505    0.20239    0.20248    1.000
    N3831    N        0.68605    0.25566    0.14464    1.000
    Si3832   Si       0.68651    0.14502    0.12611    1.000
    N3833    N        0.69033    0.15404    0.20606    1.000
    Si3834   Si       0.67144    0.07430    0.31526    1.000
    N3835    N        0.66306    0.11896    0.31548    1.000
    N3836    N        0.65721    0.05791    0.27844    1.000
    Si3837   Si       0.67976    0.02173    0.26916    1.000
    N3838    N        0.64347    0.05544    0.34492    1.000
    N3839    N        0.69399    0.00747    0.30730    1.000
    Si3840   Si       0.63743    0.08070    0.24756    1.000
    Si3841   Si       0.67505    0.14036    0.35093    1.000
    N3842    N        0.66701    0.18386    0.34245    1.000
    N3843    N        0.66189    0.06624    0.43575    1.000
    Si3844   Si       0.68708    0.03824    0.45645    1.000
    N3845    N        0.65754    0.11447    0.38157    1.000
    Si3846   Si       0.66681    0.10740    0.42457    1.000
    N3847    N        0.67406    0.03602    0.49716    1.000
    Si3848   Si       0.68429    0.20781    0.37300    1.000
    N3849    N        0.64881    0.22609    0.39120    1.000
    N3850    N        0.66423    0.17759    0.46045    1.000
    Si3851   Si       0.66341    0.05079    0.57975    1.000
    Si3852   Si       0.67587    0.07530    0.51390    1.000
    N3853    N        0.65283    0.11495    0.61118    1.000
    N3854    N        0.68928    0.07412    0.55519    1.000
    N3855    N        0.66880    0.01161    0.56289    1.000
    N3856    N        0.67999    0.05211    0.62008    1.000
    Si3857   Si       0.67885    0.13918    0.58779    1.000
    N3858    N        0.67048    0.14584    0.54475    1.000
    N3859    N        0.67976    0.18249    0.59342    1.000
    Si3860   Si       0.66649    0.19068    0.55232    1.000
    N3861    N        0.68616    0.21545    0.52407    1.000
    Si3862   Si       0.67396    0.25615    0.52365    1.000
    N3863    N        0.64560    0.07352    0.67353    1.000
    Si3864   Si       0.67044    0.08882    0.64075    1.000
    N3865    N        0.65398    0.07109    0.74363    1.000
    N3866    N        0.67085    0.00403    0.73482    1.000
    N3867    N        0.67106    0.18051    0.66191    1.000
    Si3868   Si       0.68700    0.14632    0.68339    1.000
    N3869    N        0.65826    0.13421    0.71181    1.000
    N3870    N        0.65024    0.20786    0.72571    1.000
    Si3871   Si       0.64232    0.20158    0.68286    1.000
    Si3872   Si       0.67008    0.03683    0.76288    1.000
    N3873    N        0.65500    0.12062    0.85147    1.000
    Si3874   Si       0.66956    0.11192    0.74851    1.000
    N3875    N        0.63529    0.01721    0.78255    1.000
    N3876    N        0.65690    0.13460    0.78463    1.000
    N3877    N        0.65491    0.23379    0.78399    1.000
    Si3878   Si       0.63994    0.24531    0.82261    1.000
    Si3879   Si       0.68175    0.21272    0.75431    1.000
    N3880    N        0.63459    0.21107    0.84879    1.000
    N3881    N        0.66110    0.05764    0.87893    1.000
    Si3882   Si       0.68502    0.05247    0.97482    1.000
    N3883    N        0.66139    0.02110    0.95704    1.000
    N3884    N        0.65937    0.08840    0.97572    1.000
    Si3885   Si       0.64493    0.01799    0.88155    1.000
    Si3886   Si       0.67218    0.14517    0.92740    1.000
    N3887    N        0.66443    0.18241    0.90620    1.000
    Si3888   Si       0.66410    0.21456    0.88033    1.000
    N3889    N        0.65326    0.25431    0.90257    1.000
    N3890    N        0.68502    0.15155    0.96971    1.000
    Si3891   Si       0.66670    0.30611    0.05938    1.000
    N3892    N        0.68813    0.31362    0.02330    1.000
    N3893    N        0.64145    0.27384    0.08201    1.000
    N3894    N        0.69338    0.30371    0.09524    1.000
    N3895    N        0.69120    0.38442    0.03711    1.000
    Si3896   Si       0.68685    0.48266    0.05385    1.000
    Si3897   Si       0.65594    0.40319    0.11050    1.000
    Si3898   Si       0.65641    0.40863    0.03534    1.000
    N3899    N        0.66598    0.44924    0.02899    1.000
    Si3900   Si       0.64093    0.47876    0.00906    1.000
    N3901    N        0.65075    0.50665    0.04095    1.000
    Si3902   Si       0.66585    0.27940    0.11699    1.000
    N3903    N        0.67833    0.33420    0.19257    1.000
    N3904    N        0.65705    0.37667    0.14555    1.000
    Si3905   Si       0.63926    0.31678    0.17848    1.000
    Si3906   Si       0.69512    0.36458    0.16358    1.000
    N3907    N        0.63786    0.40530    0.21110    1.000
    Si3908   Si       0.68044    0.41540    0.21389    1.000
    N3909    N        0.65326    0.44147    0.13083    1.000
    N3910    N        0.68518    0.50475    0.16338    1.000
    N3911    N        0.68624    0.45765    0.22093    1.000
    N3912    N        0.65726    0.34097    0.31928    1.000
    N3913    N        0.67574    0.30692    0.25775    1.000
    Si3914   Si       0.64252    0.32304    0.28169    1.000
    Si3915   Si       0.69155    0.27305    0.33891    1.000
    N3916    N        0.65961    0.29282    0.36399    1.000
    N3917    N        0.67396    0.25955    0.30228    1.000
    N3918    N        0.68550    0.47511    0.29213    1.000
    Si3919   Si       0.65999    0.44242    0.31156    1.000
    N3920    N        0.65309    0.41658    0.27689    1.000
    Si3921   Si       0.66788    0.48217    0.25385    1.000
    N3922    N        0.68803    0.41417    0.32806    1.000
    N3923    N        0.65883    0.32495    0.47097    1.000
    N3924    N        0.68314    0.27314    0.43322    1.000
    Si3925   Si       0.64943    0.28533    0.45860    1.000
    Si3926   Si       0.65549    0.26821    0.39961    1.000
    N3927    N        0.64420    0.26097    0.49376    1.000
    N3928    N        0.64000    0.48762    0.48417    1.000
    Si3929   Si       0.68855    0.42435    0.44028    1.000
    N3930    N        0.63505    0.47725    0.39037    1.000
    N3931    N        0.67588    0.41753    0.39596    1.000
    N3932    N        0.64786    0.41502    0.44876    1.000
    Si3933   Si       0.67463    0.46149    0.39457    1.000
    N3934    N        0.67588    0.34799    0.53204    1.000
    Si3935   Si       0.68616    0.26961    0.60270    1.000
    N3936    N        0.66287    0.25949    0.56769    1.000
    N3937    N        0.65106    0.39004    0.57775    1.000
    N3938    N        0.67825    0.45458    0.59586    1.000
    Si3939   Si       0.66659    0.42786    0.56095    1.000
    Si3940   Si       0.67022    0.48228    0.51542    1.000
    N3941    N        0.64358    0.45413    0.53852    1.000
    Si3942   Si       0.64477    0.37773    0.62005    1.000
    Si3943   Si       0.67875    0.32888    0.73125    1.000
    Si3944   Si       0.67560    0.31382    0.65870    1.000
    N3945    N        0.65578    0.29054    0.62712    1.000
    N3946    N        0.65178    0.31277    0.69744    1.000
    N3947    N        0.67666    0.35534    0.64240    1.000
    N3948    N        0.67092    0.40362    0.71360    1.000
    Si3949   Si       0.63877    0.41041    0.68469    1.000
    Si3950   Si       0.64289    0.45605    0.62317    1.000
    N3951    N        0.64512    0.41776    0.64142    1.000
    N3952    N        0.65335    0.49359    0.73557    1.000
    N3953    N        0.64224    0.49076    0.64771    1.000
    Si3954   Si       0.69313    0.50046    0.71630    1.000
    Si3955   Si       0.67905    0.51247    0.65412    1.000
    Si3956   Si       0.67597    0.34275    0.79606    1.000
    N3957    N        0.67464    0.26854    0.82736    1.000
    N3958    N        0.68671    0.30933    0.76974    1.000
    N3959    N        0.63893    0.33646    0.81737    1.000
    N3960    N        0.64598    0.35386    0.74830    1.000
    N3961    N        0.68682    0.38470    0.78393    1.000
    Si3962   Si       0.65747    0.39484    0.75447    1.000
    N3963    N        0.67370    0.44510    0.84930    1.000
    Si3964   Si       0.67222    0.31081    0.98223    1.000
    Si3965   Si       0.67270    0.36321    0.93056    1.000
    Si3966   Si       0.68330    0.28731    0.91284    1.000
    N3967    N        0.67648    0.33017    0.90304    1.000
    N3968    N        0.68585    0.35260    0.97269    1.000
    N3969    N        0.69228    0.28484    0.95524    1.000
    N3970    N        0.65526    0.42498    0.96039    1.000
    N3971    N        0.64412    0.47405    0.90141    1.000
    Si3972   Si       0.65723    0.46554    0.94192    1.000
    N3973    N        0.65234    0.49577    0.97237    1.000
    Si3974   Si       0.66190    0.60713    0.05326    1.000
    Si3975   Si       0.65453    0.56099    0.11320    1.000
    N3976    N        0.66529    0.61498    0.00871    1.000
    N3977    N        0.65150    0.56926    0.07076    1.000
    N3978    N        0.67719    0.67353    0.10372    1.000
    Si3979   Si       0.67204    0.74083    0.05288    1.000
    N3980    N        0.64567    0.70596    0.04969    1.000
    Si3981   Si       0.63988    0.67534    0.08032    1.000
    N3982    N        0.68331    0.76081    0.08815    1.000
    N3983    N        0.68774    0.51720    0.23963    1.000
    Si3984   Si       0.64164    0.51347    0.16669    1.000
    Si3985   Si       0.66630    0.60480    0.17370    1.000
    Si3986   Si       0.67170    0.55523    0.22612    1.000
    N3987    N        0.64017    0.59304    0.14066    1.000
    N3988    N        0.69176    0.58341    0.20152    1.000
    N3989    N        0.63927    0.62071    0.20409    1.000
    N3990    N        0.63926    0.54189    0.19942    1.000
    N3991    N        0.65019    0.67414    0.16569    1.000
    Si3992   Si       0.68754    0.66804    0.14477    1.000
    N3993    N        0.68128    0.66368    0.23031    1.000
    Si3994   Si       0.64534    0.66318    0.20613    1.000
    Si3995   Si       0.64112    0.72789    0.24015    1.000
    N3996    N        0.67860    0.73034    0.21944    1.000
    N3997    N        0.66998    0.59338    0.32561    1.000
    N3998    N        0.65688    0.57798    0.25925    1.000
    Si3999   Si       0.64804    0.56768    0.29995    1.000
    N4000    N        0.64823    0.52625    0.30475    1.000
    N4001    N        0.66842    0.53679    0.36410    1.000
    Si4002   Si       0.66149    0.57858    0.36691    1.000
    Si4003   Si       0.68337    0.51124    0.33082    1.000
    N4004    N        0.64454    0.73471    0.28352    1.000
    Si4005   Si       0.67840    0.72507    0.31121    1.000
    N4006    N        0.66795    0.71529    0.35355    1.000
    Si4007   Si       0.64662    0.52255    0.46157    1.000
    Si4008   Si       0.66897    0.62550    0.42223    1.000
    Si4009   Si       0.64570    0.59141    0.48775    1.000
    N4010    N        0.68606    0.59662    0.39658    1.000
    N4011    N        0.68975    0.52698    0.46244    1.000
    N4012    N        0.64284    0.60221    0.44663    1.000
    Si4013   Si       0.67854    0.68196    0.46474    1.000
    N4014    N        0.65018    0.65977    0.39599    1.000
    N4015    N        0.63601    0.67159    0.46533    1.000
    N4016    N        0.68520    0.72247    0.44322    1.000
    Si4017   Si       0.68424    0.67899    0.37165    1.000
    N4018    N        0.65967    0.60399    0.56616    1.000
    N4019    N        0.68497    0.58605    0.50327    1.000
    N4020    N        0.67749    0.51834    0.53606    1.000
    Si4021   Si       0.69630    0.59547    0.54568    1.000
    Si4022   Si       0.65341    0.64023    0.58894    1.000
    N4023    N        0.67521    0.73136    0.57894    1.000
    N4024    N        0.66000    0.67077    0.55948    1.000
    Si4025   Si       0.64105    0.71043    0.55789    1.000
    Si4026   Si       0.65614    0.75293    0.61345    1.000
    N4027    N        0.66247    0.55612    0.63451    1.000
    N4028    N        0.68799    0.53509    0.69172    1.000
    Si4029   Si       0.66029    0.56626    0.70318    1.000
    N4030    N        0.66011    0.61086    0.68854    1.000
    N4031    N        0.65747    0.56206    0.74532    1.000
    N4032    N        0.64444    0.72992    0.64913    1.000
    Si4033   Si       0.68555    0.63823    0.66668    1.000
    N4034    N        0.67985    0.67675    0.68646    1.000
    Si4035   Si       0.64312    0.69558    0.67324    1.000
    N4036    N        0.66777    0.64436    0.62838    1.000
    Si4037   Si       0.69020    0.68709    0.72946    1.000
    Si4038   Si       0.66845    0.53280    0.82265    1.000
    N4039    N        0.67519    0.57547    0.81256    1.000
    N4040    N        0.66097    0.53121    0.86449    1.000
    Si4041   Si       0.68960    0.57628    0.77201    1.000
    Si4042   Si       0.68364    0.60708    0.84045    1.000
    Si4043   Si       0.66159    0.63932    0.78236    1.000
    N4044    N        0.66832    0.64765    0.82588    1.000
    Si4045   Si       0.66706    0.74838    0.77134    1.000
    N4046    N        0.69166    0.75173    0.80817    1.000
    N4047    N        0.65905    0.66980    0.75066    1.000
    Si4048   Si       0.69085    0.55366    0.88333    1.000
    Si4049   Si       0.66240    0.62317    0.91244    1.000
    N4050    N        0.67348    0.59582    0.88169    1.000
    Si4051   Si       0.65275    0.53912    0.96875    1.000
    N4052    N        0.68903    0.56094    0.96849    1.000
    Si4053   Si       0.63736    0.62884    0.97926    1.000
    Si4054   Si       0.66995    0.69977    0.96432    1.000
    N4055    N        0.64453    0.72633    0.98812    1.000
    N4056    N        0.64707    0.66207    0.89242    1.000
    Si4057   Si       0.68608    0.68131    0.90033    1.000
    N4058    N        0.68377    0.71586    0.92561    1.000
    N4059    N        0.64189    0.66753    0.95878    1.000
    N4060    N        0.65000    0.77248    0.03229    1.000
    Si4061   Si       0.64396    0.83563    0.08879    1.000
    Si4062   Si       0.65127    0.87327    0.00274    1.000
    N4063    N        0.64721    0.87738    0.10141    1.000
    N4064    N        0.68573    0.83129    0.08386    1.000
    N4065    N        0.66574    0.87935    0.04163    1.000
    N4066    N        0.66593    0.93961    0.07906    1.000
    N4067    N        0.65910    0.97230    0.00920    1.000
    Si4068   Si       0.64342    0.90472    0.06946    1.000
    Si4069   Si       0.68167    0.00160    0.03413    1.000
    N4070    N        0.65645    0.79266    0.18933    1.000
    N4071    N        0.67810    0.85322    0.15878    1.000
    Si4072   Si       0.66755    0.81132    0.15272    1.000
    Si4073   Si       0.68953    0.77250    0.21323    1.000
    Si4074   Si       0.64778    0.87930    0.14625    1.000
    Si4075   Si       0.65600    0.94649    0.11930    1.000
    N4076    N        0.67499    0.98510    0.12961    1.000
    Si4077   Si       0.63465    0.97237    0.22578    1.000
    Si4078   Si       0.68707    0.99393    0.17242    1.000
    N4079    N        0.64595    0.93137    0.21750    1.000
    Si4080   Si       0.67763    0.92568    0.18956    1.000
    N4081    N        0.64836    0.99943    0.19027    1.000
    N4082    N        0.66184    0.91936    0.15201    1.000
    N4083    N        0.65918    0.81596    0.30936    1.000
    Si4084   Si       0.65873    0.82334    0.26564    1.000
    N4085    N        0.66708    0.86507    0.26323    1.000
    N4086    N        0.68922    0.79626    0.25021    1.000
    N4087    N        0.63837    0.77797    0.37012    1.000
    N4088    N        0.68973    0.87746    0.33145    1.000
    Si4089   Si       0.69124    0.83332    0.33347    1.000
    Si4090   Si       0.68201    0.89565    0.29255    1.000
    Si4091   Si       0.65952    0.96270    0.29540    1.000
    N4092    N        0.66077    0.98461    0.25696    1.000
    N4093    N        0.64710    0.92138    0.28428    1.000
    N4094    N        0.68559    0.94752    0.32895    1.000
    Si4095   Si       0.64510    0.89765    0.24278    1.000
    Si4096   Si       0.67477    0.76271    0.46002    1.000
    Si4097   Si       0.66302    0.80301    0.39580    1.000
    N4098    N        0.64334    0.84487    0.49187    1.000
    N4099    N        0.68829    0.78472    0.42496    1.000
    Si4100   Si       0.66550    0.90674    0.41393    1.000
    N4101    N        0.67895    0.88683    0.45301    1.000
    N4102    N        0.68747    0.99790    0.43933    1.000
    Si4103   Si       0.64434    0.88618    0.47944    1.000
    N4104    N        0.66304    0.99561    0.37701    1.000
    Si4105   Si       0.65387    0.98309    0.41662    1.000
    N4106    N        0.64607    0.94237    0.42782    1.000
    N4107    N        0.66918    0.84194    0.55890    1.000
    N4108    N        0.64888    0.91190    0.51367    1.000
    Si4109   Si       0.68520    0.93284    0.52593    1.000
    N4110    N        0.68392    0.96924    0.50302    1.000
    Si4111   Si       0.69072    0.98387    0.58716    1.000
    N4112    N        0.65994    0.90311    0.61454    1.000
    Si4113   Si       0.66152    0.00321    0.52135    1.000
    N4114    N        0.66606    0.96962    0.61902    1.000
    N4115    N        0.69437    0.94315    0.56918    1.000
    Si4116   Si       0.64239    0.86280    0.62368    1.000
    N4117    N        0.68042    0.84114    0.62882    1.000
    N4118    N        0.64979    0.79356    0.68553    1.000
    N4119    N        0.68786    0.77590    0.63024    1.000
    Si4120   Si       0.68047    0.80965    0.65942    1.000
    Si4121   Si       0.66686    0.81471    0.72078    1.000
    N4122    N        0.65067    0.85452    0.72939    1.000
    Si4123   Si       0.63431    0.91509    0.67064    1.000
    Si4124   Si       0.69168    0.95876    0.65322    1.000
    N4125    N        0.67263    0.93259    0.68135    1.000
    N4126    N        0.67688    0.87728    0.80446    1.000
    N4127    N        0.65988    0.78938    0.86030    1.000
    N4128    N        0.65853    0.78947    0.75524    1.000
    Si4129   Si       0.65042    0.99040    0.81497    1.000
    N4130    N        0.69046    0.98980    0.82904    1.000
    Si4131   Si       0.69280    0.96196    0.86366    1.000
    N4132    N        0.67137    0.91718    0.74708    1.000
    N4133    N        0.67698    0.85489    0.86894    1.000
    N4134    N        0.68177    0.79337    0.92056    1.000
    N4135    N        0.68207    0.84845    0.98177    1.000
    Si4136   Si       0.66923    0.81266    0.95680    1.000
    N4137    N        0.64799    0.84828    0.93038    1.000
    Si4138   Si       0.65873    0.82183    0.89226    1.000
    Si4139   Si       0.67877    0.87747    0.94923    1.000
    N4140    N        0.69446    0.78337    0.97990    1.000
    Si4141   Si       0.65475    0.76609    0.99058    1.000
    Si4142   Si       0.68490    0.93912    0.99072    1.000
    N4143    N        0.67264    0.92473    0.86795    1.000
    N4144    N        0.67194    0.98754    0.89384    1.000
    N4145    N        0.66138    0.90683    0.97700    1.000
    Si4146   Si       0.66797    0.98360    0.93662    1.000
    N4147    N        0.73819    0.09294    0.07161    1.000
    Si4148   Si       0.72545    0.06716    0.03657    1.000
    N4149    N        0.71147    0.10611    0.01906    1.000
    N4150    N        0.69822    0.03850    0.01538    1.000
    Si4151   Si       0.73027    0.13398    0.05268    1.000
    N4152    N        0.72802    0.21238    0.10274    1.000
    N4153    N        0.72088    0.17493    0.03210    1.000
    N4154    N        0.74336    0.24506    0.05182    1.000
    Si4155   Si       0.71364    0.21066    0.05993    1.000
    Si4156   Si       0.75159    0.17706    0.11697    1.000
    Si4157   Si       0.75453    0.24966    0.09221    1.000
    N4158    N        0.72913    0.08650    0.18300    1.000
    N4159    N        0.72177    0.01946    0.17434    1.000
    Si4160   Si       0.71372    0.08141    0.22535    1.000
    Si4161   Si       0.72100    0.05737    0.15257    1.000
    Si4162   Si       0.74496    0.12490    0.16941    1.000
    Si4163   Si       0.69965    0.21297    0.13703    1.000
    N4164    N        0.72484    0.15119    0.14323    1.000
    N4165    N        0.71901    0.21278    0.17916    1.000
    N4166    N        0.71898    0.19130    0.24540    1.000
    Si4167   Si       0.72586    0.14925    0.23035    1.000
    Si4168   Si       0.70714    0.25485    0.18454    1.000
    N4169    N        0.71223    0.06765    0.32556    1.000
    Si4170   Si       0.73071    0.02866    0.32319    1.000
    Si4171   Si       0.73916    0.09903    0.33951    1.000
    N4172    N        0.71414    0.04209    0.24594    1.000
    N4173    N        0.73319    0.11181    0.25202    1.000
    N4174    N        0.71889    0.13389    0.35236    1.000
    N4175    N        0.70868    0.24483    0.36821    1.000
    Si4176   Si       0.75080    0.21890    0.25825    1.000
    Si4177   Si       0.72616    0.10151    0.46110    1.000
    N4178    N        0.72370    0.05972    0.45065    1.000
    N4179    N        0.70621    0.12641    0.43045    1.000
    N4180    N        0.69823    0.10728    0.49449    1.000
    N4181    N        0.70581    0.17936    0.39867    1.000
    Si4182   Si       0.73461    0.13763    0.39295    1.000
    N4183    N        0.74835    0.25566    0.43772    1.000
    N4184    N        0.72983    0.19162    0.46378    1.000
    Si4185   Si       0.70139    0.16980    0.43990    1.000
    Si4186   Si       0.74692    0.25875    0.38787    1.000
    Si4187   Si       0.72898    0.08412    0.56886    1.000
    N4188    N        0.71771    0.12090    0.59293    1.000
    N4189    N        0.74474    0.10774    0.53701    1.000
    Si4190   Si       0.71069    0.13365    0.52781    1.000
    N4191    N        0.73342    0.16974    0.53252    1.000
    Si4192   Si       0.72314    0.20144    0.50636    1.000
    Si4193   Si       0.74899    0.14317    0.61376    1.000
    N4194    N        0.75570    0.23059    0.50409    1.000
    N4195    N        0.74062    0.05306    0.65814    1.000
    Si4196   Si       0.74178    0.09523    0.66731    1.000
    Si4197   Si       0.71292    0.02850    0.63514    1.000
    N4198    N        0.74028    0.02409    0.71957    1.000
    N4199    N        0.69952    0.11096    0.66156    1.000
    Si4200   Si       0.73983    0.13147    0.73496    1.000
    N4201    N        0.75533    0.10421    0.70575    1.000
    Si4202   Si       0.74547    0.18244    0.68216    1.000
    N4203    N        0.74356    0.22788    0.68545    1.000
    N4204    N        0.71780    0.16164    0.70968    1.000
    Si4205   Si       0.73645    0.25554    0.65213    1.000
    N4206    N        0.70323    0.23819    0.62670    1.000
    Si4207   Si       0.69751    0.19723    0.63078    1.000
    Si4208   Si       0.74475    0.24840    0.72470    1.000
    N4209    N        0.73361    0.17456    0.64125    1.000
    N4210    N        0.70703    0.24727    0.74651    1.000
    N4211    N        0.71851    0.08651    0.83771    1.000
    Si4212   Si       0.72325    0.08172    0.79497    1.000
    N4213    N        0.71043    0.11428    0.76667    1.000
    N4214    N        0.70352    0.04254    0.78862    1.000
    N4215    N        0.74775    0.02211    0.85127    1.000
    Si4216   Si       0.74955    0.06517    0.85895    1.000
    Si4217   Si       0.72529    0.01102    0.81555    1.000
    Si4218   Si       0.69609    0.11893    0.86091    1.000
    N4219    N        0.71126    0.15339    0.83709    1.000
    N4220    N        0.70752    0.18516    0.77699    1.000
    Si4221   Si       0.73275    0.18736    0.85320    1.000
    N4222    N        0.70168    0.21851    0.85802    1.000
    Si4223   Si       0.69610    0.14701    0.79482    1.000
    Si4224   Si       0.73192    0.09848    0.92863    1.000
    N4225    N        0.70225    0.12095    0.90540    1.000
    N4226    N        0.72257    0.06209    0.95420    1.000
    N4227    N        0.75110    0.06858    0.90192    1.000
    N4228    N        0.69438    0.22155    0.98559    1.000
    N4229    N        0.75199    0.18193    0.89026    1.000
    N4230    N        0.73360    0.23810    0.92657    1.000
    N4231    N        0.74921    0.18558    0.96300    1.000
    Si4232   Si       0.71948    0.24996    0.96551    1.000
    Si4233   Si       0.71441    0.18266    0.98805    1.000
    Si4234   Si       0.73003    0.32335    0.10495    1.000
    N4235    N        0.74117    0.35260    0.07641    1.000
    Si4236   Si       0.70488    0.35212    0.01203    1.000
    N4237    N        0.74899    0.35328    0.00749    1.000
    N4238    N        0.75334    0.28614    0.11664    1.000
    Si4239   Si       0.73802    0.44712    0.01364    1.000
    Si4240   Si       0.72304    0.39253    0.06735    1.000
    N4241    N        0.72046    0.48678    0.03044    1.000
    N4242    N        0.74769    0.42428    0.04899    1.000
    N4243    N        0.69777    0.41227    0.09830    1.000
    N4244    N        0.69652    0.48730    0.09766    1.000
    N4245    N        0.72659    0.34765    0.14037    1.000
    N4246    N        0.74182    0.27889    0.18840    1.000
    N4247    N        0.73431    0.32829    0.23555    1.000
    Si4248   Si       0.69220    0.33719    0.23301    1.000
    N4249    N        0.68944    0.37998    0.24088    1.000
    N4250    N        0.73375    0.45042    0.14592    1.000
    Si4251   Si       0.70319    0.49439    0.20196    1.000
    N4252    N        0.70852    0.40110    0.18169    1.000
    Si4253   Si       0.74501    0.42472    0.17903    1.000
    Si4254   Si       0.69597    0.45013    0.12308    1.000
    N4255    N        0.71908    0.30538    0.32949    1.000
    N4256    N        0.71787    0.36284    0.29456    1.000
    N4257    N        0.71029    0.36064    0.36459    1.000
    Si4258   Si       0.69888    0.34295    0.32803    1.000
    N4259    N        0.73660    0.26082    0.25886    1.000
    Si4260   Si       0.74964    0.35193    0.26815    1.000
    Si4261   Si       0.69312    0.26630    0.26177    1.000
    Si4262   Si       0.72788    0.46525    0.29284    1.000
    N4263    N        0.72924    0.42541    0.27557    1.000
    N4264    N        0.74243    0.49118    0.26202    1.000
    Si4265   Si       0.70444    0.40245    0.36914    1.000
    Si4266   Si       0.74065    0.46766    0.36696    1.000
    N4267    N        0.69789    0.47866    0.35979    1.000
    Si4268   Si       0.69421    0.39874    0.28276    1.000
    Si4269   Si       0.74239    0.34201    0.38650    1.000
    Si4270   Si       0.72226    0.29111    0.43839    1.000
    N4271    N        0.72300    0.32663    0.46404    1.000
    Si4272   Si       0.73858    0.36782    0.46007    1.000
    N4273    N        0.73519    0.30200    0.39795    1.000
    N4274    N        0.75026    0.36903    0.41904    1.000
    N4275    N        0.74093    0.42487    0.37939    1.000
    N4276    N        0.69803    0.46590    0.42930    1.000
    Si4277   Si       0.71286    0.49064    0.46104    1.000
    N4278    N        0.71133    0.40029    0.46821    1.000
    N4279    N        0.70211    0.46470    0.49401    1.000
    N4280    N        0.71911    0.29670    0.59235    1.000
    Si4281   Si       0.73312    0.30225    0.55103    1.000
    N4282    N        0.73908    0.34241    0.53327    1.000
    N4283    N        0.70373    0.28696    0.51852    1.000
    Si4284   Si       0.70740    0.36853    0.55270    1.000
    N4285    N        0.72488    0.36923    0.59342    1.000
    Si4286   Si       0.75014    0.30932    0.61971    1.000
    Si4287   Si       0.69270    0.32454    0.49662    1.000
    Si4288   Si       0.71478    0.47836    0.59673    1.000
    N4289    N        0.73352    0.49062    0.55875    1.000
    Si4290   Si       0.71812    0.42556    0.50353    1.000
    N4291    N        0.69945    0.41000    0.53818    1.000
    N4292    N        0.71422    0.29353    0.66274    1.000
    N4293    N        0.71197    0.34682    0.71018    1.000
    Si4294   Si       0.73842    0.32049    0.68744    1.000
    Si4295   Si       0.71735    0.37186    0.63611    1.000
    N4296    N        0.75315    0.34283    0.65290    1.000
    Si4297   Si       0.75126    0.45368    0.73622    1.000
    N4298    N        0.74307    0.45774    0.62310    1.000
    N4299    N        0.73061    0.41519    0.74045    1.000
    Si4300   Si       0.71298    0.39356    0.70861    1.000
    N4301    N        0.70105    0.47538    0.68025    1.000
    N4302    N        0.72559    0.48911    0.74553    1.000
    N4303    N        0.72283    0.40405    0.66596    1.000
    Si4304   Si       0.72998    0.44766    0.66408    1.000
    N4305    N        0.70434    0.33579    0.83034    1.000
    N4306    N        0.73378    0.26739    0.80501    1.000
    Si4307   Si       0.74513    0.34983    0.83179    1.000
    N4308    N        0.75349    0.37271    0.79620    1.000
    Si4309   Si       0.69385    0.26964    0.78375    1.000
    Si4310   Si       0.71593    0.25832    0.84549    1.000
    N4311    N        0.69979    0.50242    0.81544    1.000
    Si4312   Si       0.70968    0.46547    0.83570    1.000
    Si4313   Si       0.72436    0.40381    0.78061    1.000
    N4314    N        0.73083    0.43933    0.80612    1.000
    N4315    N        0.73601    0.47617    0.86810    1.000
    Si4316   Si       0.70614    0.32847    0.87289    1.000
    N4317    N        0.74063    0.35676    0.87585    1.000
    N4318    N        0.71588    0.28601    0.88179    1.000
    Si4319   Si       0.75164    0.26635    0.89844    1.000
    Si4320   Si       0.72290    0.48677    0.91096    1.000
    Si4321   Si       0.74520    0.38677    0.90678    1.000
    Si4322   Si       0.69889    0.42060    0.95328    1.000
    N4323    N        0.70056    0.46000    0.93628    1.000
    N4324    N        0.72859    0.41643    0.98361    1.000
    N4325    N        0.70375    0.39273    0.91901    1.000
    N4326    N        0.71938    0.56576    0.02978    1.000
    Si4327   Si       0.73611    0.59441    0.06083    1.000
    Si4328   Si       0.73707    0.52788    0.02020    1.000
    N4329    N        0.70072    0.61806    0.06811    1.000
    N4330    N        0.75209    0.58882    0.10205    1.000
    Si4331   Si       0.70026    0.58852    0.99883    1.000
    Si4332   Si       0.71353    0.65618    0.08573    1.000
    N4333    N        0.73349    0.67516    0.05296    1.000
    Si4334   Si       0.73011    0.69748    0.01625    1.000
    N4335    N        0.71286    0.73453    0.03320    1.000
    N4336    N        0.74702    0.67070    0.11329    1.000
    Si4337   Si       0.70643    0.51639    0.12643    1.000
    N4338    N        0.74633    0.57483    0.17013    1.000
    Si4339   Si       0.73373    0.58588    0.20960    1.000
    Si4340   Si       0.72428    0.59034    0.13609    1.000
    N4341    N        0.74988    0.51793    0.12876    1.000
    N4342    N        0.69847    0.62403    0.14944    1.000
    N4343    N        0.69673    0.55812    0.12141    1.000
    N4344    N        0.74499    0.50514    0.19634    1.000
    N4345    N        0.73792    0.68815    0.23738    1.000
    N4346    N        0.71451    0.68855    0.17145    1.000
    Si4347   Si       0.70477    0.69690    0.21299    1.000
    N4348    N        0.71619    0.53277    0.31093    1.000
    Si4349   Si       0.72082    0.52937    0.26767    1.000
    Si4350   Si       0.70904    0.61494    0.32240    1.000
    N4351    N        0.74755    0.59185    0.32594    1.000
    N4352    N        0.71983    0.62858    0.28254    1.000
    Si4353   Si       0.74714    0.55070    0.33674    1.000
    N4354    N        0.73637    0.56604    0.24908    1.000
    Si4355   Si       0.75158    0.60381    0.26789    1.000
    N4356    N        0.70540    0.64566    0.35375    1.000
    Si4357   Si       0.70931    0.66558    0.26276    1.000
    N4358    N        0.70849    0.75620    0.31190    1.000
    N4359    N        0.69691    0.69140    0.29297    1.000
    N4360    N        0.74681    0.62339    0.40403    1.000
    Si4361   Si       0.72830    0.58428    0.40361    1.000
    N4362    N        0.72952    0.58297    0.44817    1.000
    Si4363   Si       0.70994    0.56125    0.47934    1.000
    Si4364   Si       0.73590    0.62604    0.44615    1.000
    N4365    N        0.74376    0.55205    0.37937    1.000
    N4366    N        0.74636    0.72307    0.45864    1.000
    N4367    N        0.72356    0.69162    0.39170    1.000
    Si4368   Si       0.74249    0.65462    0.37474    1.000
    Si4369   Si       0.72283    0.72548    0.42110    1.000
    N4370    N        0.74309    0.75642    0.39649    1.000
    N4371    N        0.69750    0.64560    0.44802    1.000
    N4372    N        0.71549    0.56243    0.56868    1.000
    Si4373   Si       0.71913    0.52778    0.54186    1.000
    N4374    N        0.73860    0.54443    0.50797    1.000
    N4375    N        0.72034    0.63026    0.54273    1.000
    Si4376   Si       0.69717    0.55408    0.61059    1.000
    Si4377   Si       0.75367    0.57236    0.58949    1.000
    N4378    N        0.74294    0.74113    0.60814    1.000
    Si4379   Si       0.71999    0.72294    0.57446    1.000
    N4380    N        0.72200    0.68077    0.57608    1.000
    N4381    N        0.74196    0.72550    0.53525    1.000
    Si4382   Si       0.69785    0.66883    0.54062    1.000
    Si4383   Si       0.72288    0.72663    0.49589    1.000
    N4384    N        0.69814    0.68790    0.50223    1.000
    Si4385   Si       0.75396    0.65103    0.57229    1.000
    N4386    N        0.70327    0.51226    0.62113    1.000
    Si4387   Si       0.74866    0.59288    0.66216    1.000
    N4388    N        0.73475    0.56937    0.62810    1.000
    N4389    N        0.72661    0.62849    0.67027    1.000
    N4390    N        0.74160    0.69880    0.67222    1.000
    N4391    N        0.72802    0.66497    0.72975    1.000
    Si4392   Si       0.74516    0.66179    0.69077    1.000
    N4393    N        0.72505    0.55317    0.76905    1.000
    N4394    N        0.72379    0.62459    0.83541    1.000
    N4395    N        0.72563    0.56099    0.85812    1.000
    Si4396   Si       0.74976    0.59108    0.84048    1.000
    Si4397   Si       0.72948    0.50981    0.78394    1.000
    N4398    N        0.69850    0.61869    0.76868    1.000
    Si4399   Si       0.73275    0.64676    0.76772    1.000
    N4400    N        0.72396    0.68108    0.79610    1.000
    Si4401   Si       0.72049    0.72494    0.78736    1.000
    Si4402   Si       0.70921    0.66614    0.83141    1.000
    N4403    N        0.71440    0.68944    0.86766    1.000
    N4404    N        0.69604    0.72346    0.75142    1.000
    N4405    N        0.74513    0.52205    0.97557    1.000
    N4406    N        0.73077    0.61514    0.97938    1.000
    Si4407   Si       0.72480    0.54722    0.94859    1.000
    N4408    N        0.70822    0.52601    0.91425    1.000
    N4409    N        0.75414    0.57316    0.92857    1.000
    Si4410   Si       0.74503    0.72017    0.86979    1.000
    N4411    N        0.69864    0.64801    0.92580    1.000
    Si4412   Si       0.72501    0.65332    0.95891    1.000
    N4413    N        0.73914    0.75770    0.94213    1.000
    Si4414   Si       0.70345    0.75654    0.91527    1.000
    N4415    N        0.70634    0.68541    0.98172    1.000
    N4416    N        0.72072    0.75607    0.87497    1.000
    N4417    N        0.73124    0.85973    0.03627    1.000
    Si4418   Si       0.70462    0.79622    0.09758    1.000
    N4419    N        0.73999    0.79567    0.06969    1.000
    Si4420   Si       0.70092    0.86764    0.06581    1.000
    Si4421   Si       0.74591    0.75622    0.05164    1.000
    Si4422   Si       0.74565    0.90056    0.01938    1.000
    Si4423   Si       0.70726    0.94125    0.06349    1.000
    N4424    N        0.71727    0.98405    0.05322    1.000
    N4425    N        0.71798    0.90294    0.08355    1.000
    N4426    N        0.71251    0.92750    0.02186    1.000
    Si4427   Si       0.75040    0.89794    0.11187    1.000
    N4428    N        0.75075    0.83835    0.17755    1.000
    N4429    N        0.73178    0.77375    0.19949    1.000
    Si4430   Si       0.74503    0.79758    0.16400    1.000
    Si4431   Si       0.71734    0.86843    0.17375    1.000
    N4432    N        0.70716    0.79542    0.14094    1.000
    N4433    N        0.73785    0.89969    0.15347    1.000
    N4434    N        0.70029    0.89263    0.20743    1.000
    Si4435   Si       0.73113    0.89589    0.23937    1.000
    N4436    N        0.70490    0.95775    0.18983    1.000
    Si4437   Si       0.74152    0.93470    0.17864    1.000
    N4438    N        0.72623    0.82374    0.30675    1.000
    Si4439   Si       0.71699    0.78865    0.28283    1.000
    N4440    N        0.75158    0.76917    0.26662    1.000
    N4441    N        0.69678    0.81412    0.37139    1.000
    N4442    N        0.74783    0.92628    0.34187    1.000
    N4443    N        0.72147    0.91040    0.27847    1.000
    Si4444   Si       0.70731    0.91653    0.34872    1.000
    N4445    N        0.73256    0.00154    0.35637    1.000
    Si4446   Si       0.69231    0.98645    0.34756    1.000
    Si4447   Si       0.72388    0.79538    0.40082    1.000
    N4448    N        0.75210    0.86955    0.46685    1.000
    N4449    N        0.70166    0.76324    0.49454    1.000
    N4450    N        0.75317    0.82568    0.41004    1.000
    Si4451   Si       0.70798    0.97283    0.46779    1.000
    N4452    N        0.74289    0.99748    0.47159    1.000
    Si4453   Si       0.71794    0.89470    0.47373    1.000
    N4454    N        0.70042    0.92106    0.39086    1.000
    Si4455   Si       0.73589    0.93267    0.41111    1.000
    N4456    N        0.72166    0.93455    0.45367    1.000
    N4457    N        0.72935    0.80997    0.57979    1.000
    Si4458   Si       0.72817    0.78292    0.61512    1.000
    Si4459   Si       0.70033    0.84107    0.58886    1.000
    N4460    N        0.71937    0.88133    0.58480    1.000
    Si4461   Si       0.74116    0.88867    0.54820    1.000
    N4462    N        0.71534    0.90331    0.51603    1.000
    N4463    N        0.72584    0.00353    0.60180    1.000
    Si4464   Si       0.69892    0.91584    0.60159    1.000
    Si4465   Si       0.74646    0.80600    0.68763    1.000
    N4466    N        0.70498    0.81616    0.69575    1.000
    Si4467   Si       0.74895    0.87632    0.71240    1.000
    N4468    N        0.75295    0.76669    0.70237    1.000
    N4469    N        0.74767    0.80804    0.64451    1.000
    Si4470   Si       0.75256    0.90953    0.65304    1.000
    Si4471   Si       0.70122    0.91889    0.71470    1.000
    N4472    N        0.70165    0.99762    0.66963    1.000
    Si4473   Si       0.70816    0.99534    0.71242    1.000
    N4474    N        0.72262    0.95579    0.72982    1.000
    N4475    N        0.72493    0.89832    0.68422    1.000
    N4476    N        0.72490    0.93867    0.62942    1.000
    N4477    N        0.72174    0.81541    0.83281    1.000
    Si4478   Si       0.70142    0.85518    0.83170    1.000
    Si4479   Si       0.69848    0.77765    0.84291    1.000
    N4480    N        0.72656    0.88958    0.74771    1.000
    N4481    N        0.72874    0.88456    0.84954    1.000
    N4482    N        0.72605    0.92945    0.79934    1.000
    Si4483   Si       0.74352    0.95427    0.76837    1.000
    Si4484   Si       0.74953    0.92187    0.83657    1.000
    N4485    N        0.73789    0.95336    0.86458    1.000
    Si4486   Si       0.69912    0.90307    0.77812    1.000
    Si4487   Si       0.73614    0.77623    0.98139    1.000
    N4488    N        0.74900    0.81815    0.97241    1.000
    Si4489   Si       0.72460    0.84675    0.99416    1.000
    N4490    N        0.70886    0.88615    0.92102    1.000
    N4491    N        0.74034    0.88506    0.97984    1.000
    Si4492   Si       0.74121    0.97062    0.95210    1.000
    N4493    N        0.69958    0.96158    0.95651    1.000
    N4494    N        0.74569    0.00154    0.92284    1.000
    Si4495   Si       0.69777    0.89242    0.87953    1.000
    Si4496   Si       0.74846    0.89347    0.93801    1.000
    Si4497   Si       0.79799    0.06234    0.04880    1.000
    N4498    N        0.80142    0.09606    0.07743    1.000
    Si4499   Si       0.76688    0.09414    0.10518    1.000
    N4500    N        0.80527    0.07567    0.00760    1.000
    N4501    N        0.76152    0.04010    0.04079    1.000
    N4502    N        0.77343    0.13241    0.02576    1.000
    Si4503   Si       0.79558    0.13727    0.06191    1.000
    N4504    N        0.79315    0.23082    0.09185    1.000
    N4505    N        0.76222    0.15431    0.08411    1.000
    N4506    N        0.80714    0.23436    0.02437    1.000
    N4507    N        0.77954    0.11589    0.14086    1.000
    N4508    N        0.79034    0.03360    0.18236    1.000
    Si4509   Si       0.79585    0.03750    0.14030    1.000
    Si4510   Si       0.80813    0.05947    0.21275    1.000
    N4511    N        0.75725    0.05624    0.12569    1.000
    N4512    N        0.77732    0.06397    0.24233    1.000
    Si4513   Si       0.80732    0.22243    0.13325    1.000
    Si4514   Si       0.75891    0.19479    0.18794    1.000
    N4515    N        0.77760    0.19353    0.14713    1.000
    Si4516   Si       0.79796    0.13845    0.21494    1.000
    N4517    N        0.75954    0.15244    0.20246    1.000
    N4518    N        0.77536    0.21561    0.22207    1.000
    N4519    N        0.77028    0.09505    0.31151    1.000
    Si4520   Si       0.77329    0.10093    0.26852    1.000
    N4521    N        0.76158    0.01915    0.29625    1.000
    Si4522   Si       0.81087    0.09042    0.32594    1.000
    Si4523   Si       0.75421    0.02723    0.25476    1.000
    N4524    N        0.80166    0.13289    0.25780    1.000
    N4525    N        0.77300    0.21015    0.29302    1.000
    Si4526   Si       0.80511    0.24610    0.36457    1.000
    N4527    N        0.76456    0.11577    0.46945    1.000
    N4528    N        0.77265    0.02800    0.40643    1.000
    Si4529   Si       0.78882    0.06869    0.39513    1.000
    N4530    N        0.78632    0.03744    0.47349    1.000
    Si4531   Si       0.79462    0.12522    0.43844    1.000
    Si4532   Si       0.75570    0.03031    0.44540    1.000
    N4533    N        0.75469    0.09481    0.38262    1.000
    N4534    N        0.81163    0.08498    0.42920    1.000
    N4535    N        0.79871    0.20915    0.45379    1.000
    N4536    N        0.77474    0.15304    0.41249    1.000
    N4537    N        0.77774    0.22316    0.38918    1.000
    Si4538   Si       0.75970    0.22316    0.46087    1.000
    Si4539   Si       0.79511    0.19047    0.41293    1.000
    Si4540   Si       0.77846    0.11493    0.51118    1.000
    Si4541   Si       0.79168    0.08401    0.61132    1.000
    N4542    N        0.75905    0.06119    0.59104    1.000
    N4543    N        0.75453    0.02420    0.53367    1.000
    Si4544   Si       0.75736    0.02033    0.57588    1.000
    N4545    N        0.81223    0.08742    0.50782    1.000
    Si4546   Si       0.77462    0.17582    0.54848    1.000
    N4547    N        0.77877    0.15741    0.58803    1.000
    Si4548   Si       0.78638    0.24651    0.52872    1.000
    N4549    N        0.79756    0.15232    0.51947    1.000
    N4550    N        0.79871    0.21322    0.55288    1.000
    N4551    N        0.77009    0.11246    0.63981    1.000
    N4552    N        0.80420    0.03555    0.69401    1.000
    Si4553   Si       0.76300    0.02579    0.68146    1.000
    Si4554   Si       0.79796    0.13343    0.66680    1.000
    N4555    N        0.78448    0.16754    0.69288    1.000
    N4556    N        0.78729    0.08280    0.84463    1.000
    Si4557   Si       0.79851    0.06958    0.80576    1.000
    N4558    N        0.76223    0.06463    0.78244    1.000
    Si4559   Si       0.76135    0.02941    0.75692    1.000
    N4560    N        0.80179    0.01380    0.75483    1.000
    N4561    N        0.77009    0.22173    0.75378    1.000
    N4562    N        0.76803    0.15188    0.76167    1.000
    Si4563   Si       0.78946    0.22446    0.83530    1.000
    N4564    N        0.76440    0.24674    0.86235    1.000
    N4565    N        0.76204    0.19369    0.81959    1.000
    Si4566   Si       0.80813    0.13727    0.76891    1.000
    N4567    N        0.80293    0.25450    0.80533    1.000
    Si4568   Si       0.75175    0.18957    0.77752    1.000
    Si4569   Si       0.75580    0.04154    0.93425    1.000
    N4570    N        0.76683    0.11546    0.94960    1.000
    Si4571   Si       0.78643    0.11292    0.99168    1.000
    N4572    N        0.79648    0.03537    0.95014    1.000
    Si4573   Si       0.80709    0.12845    0.93331    1.000
    N4574    N        0.79601    0.22711    0.92690    1.000
    Si4575   Si       0.76108    0.20418    0.92497    1.000
    N4576    N        0.82026    0.16663    0.91835    1.000
    N4577    N        0.78626    0.30132    0.03573    1.000
    Si4578   Si       0.76633    0.33951    0.04423    1.000
    N4579    N        0.80358    0.36009    0.05365    1.000
    Si4580   Si       0.77258    0.26233    0.02536    1.000
    N4581    N        0.77757    0.47658    0.08644    1.000
    Si4582   Si       0.78288    0.43787    0.06889    1.000
    N4583    N        0.79309    0.40845    0.10081    1.000
    Si4584   Si       0.80987    0.43516    0.00199    1.000
    N4585    N        0.77581    0.46236    0.99824    1.000
    N4586    N        0.80424    0.25744    0.15644    1.000
    N4587    N        0.79623    0.30272    0.22965    1.000
    N4588    N        0.78855    0.32443    0.16739    1.000
    Si4589   Si       0.77265    0.28500    0.15603    1.000
    Si4590   Si       0.76433    0.35783    0.15921    1.000
    Si4591   Si       0.75419    0.28959    0.22849    1.000
    N4592    N        0.80917    0.49323    0.22820    1.000
    Si4593   Si       0.76716    0.47622    0.12843    1.000
    N4594    N        0.80339    0.45930    0.14387    1.000
    N4595    N        0.76145    0.44030    0.21750    1.000
    Si4596   Si       0.76651    0.48368    0.22614    1.000
    Si4597   Si       0.80653    0.41561    0.14113    1.000
    N4598    N        0.77652    0.39744    0.16587    1.000
    N4599    N        0.77067    0.32213    0.29172    1.000
    N4600    N        0.77617    0.34051    0.35835    1.000
    N4601    N        0.77299    0.27111    0.35211    1.000
    Si4602   Si       0.76198    0.30891    0.33206    1.000
    Si4603   Si       0.80693    0.36969    0.35465    1.000
    Si4604   Si       0.80351    0.30335    0.27236    1.000
    N4605    N        0.77812    0.38103    0.25355    1.000
    N4606    N        0.79846    0.44780    0.27573    1.000
    Si4607   Si       0.79318    0.44230    0.31875    1.000
    N4608    N        0.79418    0.40239    0.32790    1.000
    Si4609   Si       0.76871    0.42227    0.25452    1.000
    N4610    N        0.75525    0.46443    0.32590    1.000
    N4611    N        0.77541    0.37705    0.48157    1.000
    Si4612   Si       0.77051    0.40482    0.40712    1.000
    Si4613   Si       0.77958    0.47427    0.43319    1.000
    N4614    N        0.77812    0.43337    0.44354    1.000
    N4615    N        0.80851    0.39112    0.39240    1.000
    Si4616   Si       0.78887    0.41844    0.48230    1.000
    N4617    N        0.76960    0.48692    0.39322    1.000
    N4618    N        0.75597    0.49675    0.46244    1.000
    N4619    N        0.77726    0.33128    0.59209    1.000
    Si4620   Si       0.77955    0.35505    0.51957    1.000
    Si4621   Si       0.79921    0.30856    0.56452    1.000
    N4622    N        0.76990    0.27957    0.55039    1.000
    Si4623   Si       0.76713    0.37235    0.58348    1.000
    N4624    N        0.80847    0.32355    0.52417    1.000
    N4625    N        0.79088    0.38474    0.55002    1.000
    N4626    N        0.78718    0.44683    0.57022    1.000
    Si4627   Si       0.76451    0.46818    0.53872    1.000
    Si4628   Si       0.78097    0.44179    0.61133    1.000
    N4629    N        0.76067    0.43710    0.50967    1.000
    N4630    N        0.79029    0.50214    0.52484    1.000
    N4631    N        0.77857    0.39881    0.61568    1.000
    Si4632   Si       0.78902    0.37021    0.64777    1.000
    Si4633   Si       0.79633    0.30252    0.72922    1.000
    N4634    N        0.77133    0.27117    0.63149    1.000
    N4635    N        0.75691    0.29301    0.71379    1.000
    Si4636   Si       0.80068    0.43738    0.68448    1.000
    N4637    N        0.76208    0.45443    0.69521    1.000
    N4638    N        0.79936    0.39220    0.68352    1.000
    N4639    N        0.80829    0.44966    0.64442    1.000
    Si4640   Si       0.79432    0.35741    0.78123    1.000
    N4641    N        0.77624    0.31920    0.83127    1.000
    Si4642   Si       0.77358    0.28797    0.80167    1.000
    N4643    N        0.78754    0.31589    0.76905    1.000
    N4644    N        0.76622    0.49867    0.80590    1.000
    N4645    N        0.78664    0.44936    0.76171    1.000
    Si4646   Si       0.77387    0.45629    0.80290    1.000
    N4647    N        0.79781    0.43452    0.82979    1.000
    Si4648   Si       0.78788    0.26482    0.95048    1.000
    N4649    N        0.76424    0.36590    0.93918    1.000
    N4650    N        0.77317    0.29541    0.92327    1.000
    Si4651   Si       0.78969    0.33775    0.92122    1.000
    N4652    N        0.75823    0.26135    0.98284    1.000
    Si4653   Si       0.76013    0.38321    0.97924    1.000
    Si4654   Si       0.77835    0.49499    0.96785    1.000
    Si4655   Si       0.77492    0.48760    0.88296    1.000
    N4656    N        0.77650    0.41546    0.89556    1.000
    N4657    N        0.81803    0.47548    0.88115    1.000
    N4658    N        0.80130    0.39587    0.98650    1.000
    N4659    N        0.76627    0.48674    0.92553    1.000
    Si4660   Si       0.80963    0.43198    0.87505    1.000
    N4661    N        0.77596    0.60241    0.04646    1.000
    N4662    N        0.77467    0.52887    0.03984    1.000
    Si4663   Si       0.79256    0.59090    0.08653    1.000
    Si4664   Si       0.79131    0.51614    0.07680    1.000
    Si4665   Si       0.80448    0.60456    0.01551    1.000
    N4666    N        0.81082    0.55216    0.09397    1.000
    N4667    N        0.76828    0.73395    0.08161    1.000
    Si4668   Si       0.76587    0.69145    0.07783    1.000
    N4669    N        0.80354    0.67469    0.06608    1.000
    N4670    N        0.77355    0.70176    0.00872    1.000
    Si4671   Si       0.80072    0.73858    0.00281    1.000
    Si4672   Si       0.80862    0.67969    0.02420    1.000
    Si4673   Si       0.78578    0.75074    0.11788    1.000
    N4674    N        0.80465    0.53214    0.16844    1.000
    Si4675   Si       0.76221    0.53536    0.16725    1.000
    N4676    N        0.75405    0.62159    0.22547    1.000
    N4677    N        0.77909    0.72397    0.15130    1.000
    N4678    N        0.78596    0.67134    0.18212    1.000
    Si4679   Si       0.79031    0.64356    0.21679    1.000
    Si4680   Si       0.75420    0.68573    0.15375    1.000
    Si4681   Si       0.80162    0.71133    0.18501    1.000
    N4682    N        0.78766    0.73077    0.22091    1.000
    N4683    N        0.78816    0.53087    0.34023    1.000
    Si4684   Si       0.78561    0.61420    0.32950    1.000
    N4685    N        0.78928    0.61704    0.28529    1.000
    N4686    N        0.77265    0.71064    0.29332    1.000
    Si4687   Si       0.79144    0.69139    0.32727    1.000
    N4688    N        0.77544    0.65423    0.34596    1.000
    Si4689   Si       0.77535    0.70195    0.25069    1.000
    N4690    N        0.79397    0.71362    0.36536    1.000
    N4691    N        0.80706    0.67212    0.24603    1.000
    Si4692   Si       0.75296    0.74819    0.30442    1.000
    Si4693   Si       0.78064    0.52857    0.38424    1.000
    N4694    N        0.80743    0.54755    0.47530    1.000
    Si4695   Si       0.77447    0.52456    0.48977    1.000
    Si4696   Si       0.78925    0.71831    0.46329    1.000
    N4697    N        0.76761    0.63824    0.47055    1.000
    N4698    N        0.80026    0.68804    0.43237    1.000
    Si4699   Si       0.78034    0.75300    0.37230    1.000
    Si4700   Si       0.80360    0.64902    0.44817    1.000
    N4701    N        0.78634    0.55020    0.57405    1.000
    N4702    N        0.77015    0.61070    0.58425    1.000
    N4703    N        0.80467    0.59965    0.52204    1.000
    Si4704   Si       0.80793    0.58434    0.56155    1.000
    Si4705   Si       0.80203    0.62895    0.61460    1.000
    Si4706   Si       0.81379    0.52041    0.55547    1.000
    Si4707   Si       0.79115    0.63655    0.50725    1.000
    Si4708   Si       0.78388    0.70931    0.53883    1.000
    N4709    N        0.80220    0.72341    0.57477    1.000
    N4710    N        0.77963    0.66521    0.53839    1.000
    N4711    N        0.78088    0.66896    0.60861    1.000
    N4712    N        0.80476    0.71377    0.50216    1.000
    Si4713   Si       0.77908    0.71380    0.61241    1.000
    Si4714   Si       0.80232    0.56796    0.70688    1.000
    N4715    N        0.78935    0.60510    0.64969    1.000
    N4716    N        0.75838    0.57539    0.70131    1.000
    N4717    N        0.78883    0.72061    0.72088    1.000
    N4718    N        0.79788    0.72731    0.64997    1.000
    Si4719   Si       0.76947    0.72950    0.68264    1.000
    N4720    N        0.78902    0.65389    0.69697    1.000
    Si4721   Si       0.77153    0.75636    0.73991    1.000
    Si4722   Si       0.81234    0.68486    0.71691    1.000
    N4723    N        0.76722    0.61948    0.76888    1.000
    Si4724   Si       0.78520    0.53066    0.82713    1.000
    N4725    N        0.76969    0.56745    0.81158    1.000
    Si4726   Si       0.76041    0.57555    0.76775    1.000
    N4727    N        0.78756    0.52651    0.86987    1.000
    N4728    N        0.79694    0.55720    0.74807    1.000
    Si4729   Si       0.80898    0.62748    0.85434    1.000
    Si4730   Si       0.80730    0.63331    0.77685    1.000
    N4731    N        0.77197    0.71666    0.83577    1.000
    Si4732   Si       0.78925    0.74890    0.81083    1.000
    Si4733   Si       0.80274    0.68572    0.84161    1.000
    N4734    N        0.80501    0.64987    0.81634    1.000
    N4735    N        0.75614    0.74781    0.77994    1.000
    N4736    N        0.78202    0.59942    0.87031    1.000
    Si4737   Si       0.78023    0.56262    0.89437    1.000
    Si4738   Si       0.76489    0.60772    0.95130    1.000
    N4739    N        0.80332    0.60135    0.97025    1.000
    N4740    N        0.77387    0.71375    0.90367    1.000
    Si4741   Si       0.79180    0.67658    0.91675    1.000
    N4742    N        0.80395    0.66217    0.87861    1.000
    N4743    N        0.76623    0.65028    0.94047    1.000
    Si4744   Si       0.77948    0.75368    0.92651    1.000
    N4745    N        0.80805    0.74312    0.95916    1.000
    N4746    N        0.79170    0.83397    0.03968    1.000
    Si4747   Si       0.79350    0.80279    0.00825    1.000
    N4748    N        0.76585    0.76673    0.01257    1.000
    N4749    N        0.76087    0.85505    0.10180    1.000
    Si4750   Si       0.75582    0.83576    0.06275    1.000
    N4751    N        0.78575    0.97836    0.05506    1.000
    N4752    N        0.78564    0.90921    0.03443    1.000
    N4753    N        0.77515    0.93679    0.10650    1.000
    Si4754   Si       0.79642    0.93480    0.06847    1.000
    Si4755   Si       0.75259    0.99741    0.03139    1.000
    Si4756   Si       0.79179    0.83174    0.12620    1.000
    Si4757   Si       0.76798    0.76887    0.22556    1.000
    N4758    N        0.77415    0.79172    0.13410    1.000
    N4759    N        0.79407    0.80079    0.21496    1.000
    Si4760   Si       0.79030    0.84081    0.19621    1.000
    N4761    N        0.74609    0.85656    0.24573    1.000
    N4762    N        0.80449    0.00066    0.11946    1.000
    N4763    N        0.76151    0.99527    0.23079    1.000
    Si4764   Si       0.76011    0.00506    0.18931    1.000
    Si4765   Si       0.77939    0.95726    0.24020    1.000
    Si4766   Si       0.79746    0.95917    0.13605    1.000
    N4767    N        0.75736    0.92378    0.21782    1.000
    N4768    N        0.76991    0.96672    0.17037    1.000
    N4769    N        0.79316    0.82065    0.28296    1.000
    N4770    N        0.79875    0.83497    0.34912    1.000
    Si4771   Si       0.75865    0.84622    0.28490    1.000
    N4772    N        0.77798    0.77129    0.33337    1.000
    Si4773   Si       0.80462    0.80285    0.32070    1.000
    Si4774   Si       0.80764    0.87116    0.32896    1.000
    N4775    N        0.77748    0.88275    0.30064    1.000
    N4776    N        0.78001    0.95373    0.28334    1.000
    N4777    N        0.79645    0.98118    0.34720    1.000
    Si4778   Si       0.79081    0.98854    0.30500    1.000
    Si4779   Si       0.75704    0.92055    0.30045    1.000
    Si4780   Si       0.79275    0.82387    0.38919    1.000
    Si4781   Si       0.76645    0.86318    0.42768    1.000
    N4782    N        0.80667    0.78219    0.39355    1.000
    N4783    N        0.80490    0.82764    0.48194    1.000
    N4784    N        0.80249    0.76084    0.45869    1.000
    N4785    N        0.81040    0.85265    0.41510    1.000
    Si4786   Si       0.80677    0.78377    0.49612    1.000
    N4787    N        0.75893    0.89598    0.40148    1.000
    Si4788   Si       0.77821    0.92303    0.37116    1.000
    Si4789   Si       0.76914    0.99362    0.38043    1.000
    N4790    N        0.77354    0.95768    0.40219    1.000
    Si4791   Si       0.81037    0.95968    0.42441    1.000
    N4792    N        0.81599    0.97782    0.46246    1.000
    N4793    N        0.77940    0.78659    0.52891    1.000
    N4794    N        0.79603    0.82176    0.59228    1.000
    Si4795   Si       0.76604    0.81649    0.55729    1.000
    N4796    N        0.76011    0.85350    0.53409    1.000
    Si4797   Si       0.78298    0.86252    0.49830    1.000
    Si4798   Si       0.79619    0.90041    0.60412    1.000
    N4799    N        0.77411    0.91130    0.56750    1.000
    N4800    N        0.79220    0.96959    0.52475    1.000
    Si4801   Si       0.80023    0.92866    0.53813    1.000
    N4802    N        0.78628    0.99213    0.58762    1.000
    N4803    N        0.80403    0.90070    0.50505    1.000
    Si4804   Si       0.77652    0.00302    0.50056    1.000
    Si4805   Si       0.75653    0.96876    0.61918    1.000
    N4806    N        0.76665    0.83746    0.71021    1.000
    Si4807   Si       0.77852    0.83412    0.63021    1.000
    N4808    N        0.77258    0.87477    0.63114    1.000
    N4809    N        0.80297    0.78747    0.74108    1.000
    N4810    N        0.80988    0.82729    0.66246    1.000
    Si4811   Si       0.80678    0.86201    0.69215    1.000
    N4812    N        0.80963    0.96503    0.70126    1.000
    N4813    N        0.78529    0.89919    0.70065    1.000
    Si4814   Si       0.80386    0.92968    0.72601    1.000
    N4815    N        0.78902    0.93394    0.63334    1.000
    N4816    N        0.77049    0.99218    0.65348    1.000
    Si4817   Si       0.80282    0.96411    0.66018    1.000
    N4818    N        0.78749    0.78256    0.83631    1.000
    N4819    N        0.77027    0.83148    0.78386    1.000
    Si4820   Si       0.76410    0.81864    0.82290    1.000
    N4821    N        0.79074    0.84249    0.84924    1.000
    Si4822   Si       0.78900    0.82750    0.74617    1.000
    N4823    N        0.79184    0.91646    0.83899    1.000
    N4824    N        0.78176    0.93432    0.76457    1.000
    Si4825   Si       0.80729    0.99755    0.79350    1.000
    N4826    N        0.75153    0.99566    0.78461    1.000
    Si4827   Si       0.81036    0.94140    0.87126    1.000
    Si4828   Si       0.81156    0.92392    0.79655    1.000
    Si4829   Si       0.80695    0.80488    0.87116    1.000
    Si4830   Si       0.78124    0.82145    0.94135    1.000
    N4831    N        0.77788    0.86222    0.92943    1.000
    N4832    N        0.79040    0.79223    0.91013    1.000
    N4833    N        0.81254    0.81552    0.96990    1.000
    Si4834   Si       0.75568    0.99103    0.88124    1.000
    Si4835   Si       0.80210    0.93502    0.93920    1.000
    N4836    N        0.79876    0.97902    0.89003    1.000
    N4837    N        0.76023    0.93519    0.93709    1.000
    N4838    N        0.75264    0.98694    0.99083    1.000
    N4839    N        0.83184    0.03607    0.06578    1.000
    Si4840   Si       0.85329    0.05557    0.10255    1.000
    N4841    N        0.84344    0.01427    0.00228    1.000
    Si4842   Si       0.86456    0.02321    0.03898    1.000
    N4843    N        0.86836    0.11956    0.02805    1.000
    N4844    N        0.82438    0.16846    0.05653    1.000
    N4845    N        0.86165    0.22202    0.07539    1.000
    Si4846   Si       0.81980    0.21076    0.06095    1.000
    Si4847   Si       0.86733    0.15818    0.04980    1.000
    Si4848   Si       0.83750    0.24392    0.99783    1.000
    N4849    N        0.84525    0.04287    0.22613    1.000
    N4850    N        0.82751    0.06694    0.13760    1.000
    Si4851   Si       0.81971    0.10436    0.15495    1.000
    N4852    N        0.85164    0.13297    0.14566    1.000
    N4853    N        0.81192    0.10083    0.19719    1.000
    N4854    N        0.84304    0.23850    0.20387    1.000
    Si4855   Si       0.85444    0.17162    0.16721    1.000
    N4856    N        0.84599    0.20304    0.13888    1.000
    Si4857   Si       0.81882    0.20728    0.22091    1.000
    N4858    N        0.82505    0.16978    0.19970    1.000
    N4859    N        0.83499    0.08604    0.28870    1.000
    Si4860   Si       0.86231    0.06707    0.25983    1.000
    N4861    N        0.85942    0.01685    0.34542    1.000
    Si4862   Si       0.85633    0.05639    0.36436    1.000
    Si4863   Si       0.86700    0.12908    0.35650    1.000
    N4864    N        0.81608    0.06660    0.36124    1.000
    Si4865   Si       0.83556    0.13047    0.28620    1.000
    N4866    N        0.83051    0.13001    0.33055    1.000
    Si4867   Si       0.86995    0.00920    0.30192    1.000
    N4868    N        0.83263    0.20485    0.26364    1.000
    N4869    N        0.83087    0.22249    0.33867    1.000
    Si4870   Si       0.85919    0.20163    0.36517    1.000
    Si4871   Si       0.81449    0.22563    0.29646    1.000
    N4872    N        0.85836    0.06686    0.47134    1.000
    N4873    N        0.85990    0.12365    0.40172    1.000
    Si4874   Si       0.81477    0.06741    0.46940    1.000
    Si4875   Si       0.86321    0.09009    0.42953    1.000
    N4876    N        0.86816    0.05080    0.40684    1.000
    Si4877   Si       0.86650    0.25892    0.41120    1.000
    N4878    N        0.86603    0.23621    0.44861    1.000
    Si4879   Si       0.85639    0.15931    0.42573    1.000
    N4880    N        0.82913    0.14517    0.45705    1.000
    Si4881   Si       0.83313    0.22685    0.47437    1.000
    N4882    N        0.83565    0.18471    0.39735    1.000
    N4883    N        0.82677    0.10420    0.59321    1.000
    Si4884   Si       0.85627    0.09013    0.50976    1.000
    Si4885   Si       0.86740    0.08428    0.58457    1.000
    N4886    N        0.86555    0.13048    0.51618    1.000
    N4887    N        0.87154    0.06860    0.54468    1.000
    N4888    N        0.81771    0.25898    0.49957    1.000
    N4889    N        0.84691    0.17106    0.57360    1.000
    Si4890   Si       0.83753    0.21351    0.57414    1.000
    Si4891   Si       0.81978    0.14667    0.59777    1.000
    N4892    N        0.83523    0.22391    0.61651    1.000
    N4893    N        0.85029    0.19769    0.50240    1.000
    Si4894   Si       0.83470    0.15690    0.49876    1.000
    N4895    N        0.81267    0.05139    0.63137    1.000
    N4896    N        0.86555    0.07957    0.73743    1.000
    Si4897   Si       0.85410    0.11553    0.71234    1.000
    Si4898   Si       0.82960    0.06175    0.66990    1.000
    N4899    N        0.82541    0.10384    0.68160    1.000
    Si4900   Si       0.81956    0.18358    0.71334    1.000
    N4901    N        0.82341    0.15670    0.63918    1.000
    N4902    N        0.83245    0.14728    0.73502    1.000
    Si4903   Si       0.84477    0.24815    0.69781    1.000
    N4904    N        0.84060    0.20677    0.68347    1.000
    Si4905   Si       0.84972    0.19030    0.64296    1.000
    N4906    N        0.83830    0.20693    0.74766    1.000
    N4907    N        0.82118    0.09893    0.78412    1.000
    N4908    N        0.82052    0.03182    0.81446    1.000
    Si4909   Si       0.85949    0.04040    0.83124    1.000
    Si4910   Si       0.86524    0.09664    0.77749    1.000
    N4911    N        0.84904    0.06001    0.86714    1.000
    N4912    N        0.83679    0.13052    0.85866    1.000
    Si4913   Si       0.82141    0.09351    0.86992    1.000
    N4914    N        0.83156    0.16395    0.79676    1.000
    N4915    N        0.82341    0.20482    0.85402    1.000
    Si4916   Si       0.84261    0.16784    0.83784    1.000
    Si4917   Si       0.86110    0.17204    0.76481    1.000
    Si4918   Si       0.86419    0.21816    0.86741    1.000
    Si4919   Si       0.81404    0.24058    0.76289    1.000
    N4920    N        0.85878    0.25964    0.77713    1.000
    Si4921   Si       0.82653    0.04924    0.97936    1.000
    Si4922   Si       0.85725    0.11448    0.98647    1.000
    N4923    N        0.82314    0.09408    0.91340    1.000
    N4924    N        0.85173    0.02205    0.92410    1.000
    N4925    N        0.86053    0.07401    0.96953    1.000
    Si4926   Si       0.85507    0.06310    0.91170    1.000
    N4927    N        0.87104    0.21900    0.90915    1.000
    N4928    N        0.82106    0.13195    0.97497    1.000
    Si4929   Si       0.83542    0.20484    0.92982    1.000
    N4930    N        0.85004    0.20954    0.97090    1.000
    Si4931   Si       0.82389    0.32185    0.04462    1.000
    N4932    N        0.85408    0.30606    0.07102    1.000
    N4933    N        0.84588    0.33344    0.00624    1.000
    N4934    N        0.86141    0.38012    0.09217    1.000
    Si4935   Si       0.82226    0.39267    0.07471    1.000
    Si4936   Si       0.84760    0.46225    0.06297    1.000
    N4937    N        0.85362    0.44709    0.10243    1.000
    N4938    N        0.82014    0.43209    0.04566    1.000
    N4939    N        0.83041    0.50390    0.05512    1.000
    N4940    N        0.85499    0.30832    0.18515    1.000
    N4941    N        0.83097    0.36707    0.21044    1.000
    Si4942   Si       0.84427    0.26643    0.17045    1.000
    Si4943   Si       0.81759    0.32690    0.19908    1.000
    N4944    N        0.86299    0.26566    0.13072    1.000
    Si4945   Si       0.86097    0.39192    0.19046    1.000
    Si4946   Si       0.84730    0.47378    0.13655    1.000
    N4947    N        0.85257    0.48910    0.17980    1.000
    N4948    N        0.84487    0.40292    0.15283    1.000
    N4949    N        0.84590    0.35524    0.34106    1.000
    N4950    N        0.83094    0.33562    0.27358    1.000
    Si4951   Si       0.85467    0.36062    0.29817    1.000
    N4952    N        0.81577    0.26639    0.28948    1.000
    Si4953   Si       0.82029    0.37353    0.25117    1.000
    N4954    N        0.84818    0.39690    0.27455    1.000
    Si4955   Si       0.82601    0.47896    0.26700    1.000
    N4956    N        0.82460    0.46767    0.33740    1.000
    Si4957   Si       0.86422    0.46926    0.36002    1.000
    N4958    N        0.86825    0.46660    0.26653    1.000
    Si4959   Si       0.82380    0.51096    0.32833    1.000
    N4960    N        0.83460    0.31412    0.45883    1.000
    N4961    N        0.82945    0.26924    0.39285    1.000
    N4962    N        0.87048    0.35891    0.40565    1.000
    Si4963   Si       0.84950    0.39785    0.40677    1.000
    N4964    N        0.85043    0.42039    0.44266    1.000
    Si4965   Si       0.85559    0.46358    0.43485    1.000
    N4966    N        0.82015    0.49049    0.43620    1.000
    Si4967   Si       0.86111    0.42938    0.48332    1.000
    N4968    N        0.86463    0.42503    0.37841    1.000
    N4969    N        0.82923    0.28598    0.58698    1.000
    Si4970   Si       0.86500    0.30381    0.57022    1.000
    N4971    N        0.86956    0.34569    0.58074    1.000
    Si4972   Si       0.83250    0.29776    0.49964    1.000
    N4973    N        0.86851    0.30203    0.52537    1.000
    Si4974   Si       0.86109    0.35705    0.62075    1.000
    N4975    N        0.84806    0.42280    0.57430    1.000
    N4976    N        0.82568    0.42464    0.50704    1.000
    N4977    N        0.83888    0.49817    0.58175    1.000
    Si4978   Si       0.81389    0.42065    0.54939    1.000
    Si4979   Si       0.81637    0.26243    0.62467    1.000
    N4980    N        0.81366    0.26424    0.72538    1.000
    N4981    N        0.81954    0.32680    0.70307    1.000
    N4982    N        0.83759    0.27370    0.66207    1.000
    N4983    N        0.82304    0.34760    0.64023    1.000
    N4984    N        0.86675    0.37352    0.70030    1.000
    Si4985   Si       0.82435    0.37020    0.71031    1.000
    Si4986   Si       0.84240    0.31807    0.66553    1.000
    N4987    N        0.83160    0.43943    0.71416    1.000
    N4988    N        0.84814    0.30734    0.83075    1.000
    Si4989   Si       0.84294    0.26859    0.81560    1.000
    N4990    N        0.81987    0.36811    0.81725    1.000
    Si4991   Si       0.81534    0.33281    0.84234    1.000
    N4992    N        0.81085    0.38220    0.74962    1.000
    N4993    N        0.84902    0.42716    0.78690    1.000
    Si4994   Si       0.83304    0.40863    0.82356    1.000
    Si4995   Si       0.82002    0.42360    0.75396    1.000
    N4996    N        0.84942    0.41420    0.86362    1.000
    Si4997   Si       0.85276    0.33569    0.90534    1.000
    N4998    N        0.82926    0.33919    0.94465    1.000
    Si4999   Si       0.85194    0.30986    0.96908    1.000
    Si5000   Si       0.83163    0.36668    0.97725    1.000
    N5001    N        0.82796    0.27488    0.96823    1.000
    N5002    N        0.81428    0.34214    0.88483    1.000
    N5003    N        0.84656    0.44904    0.97972    1.000
    N5004    N        0.86079    0.50264    0.92546    1.000
    Si5005   Si       0.85256    0.49132    0.96745    1.000
    N5006    N        0.82856    0.56781    0.02616    1.000
    N5007    N        0.82278    0.61940    0.10460    1.000
    Si5008   Si       0.85407    0.53718    0.07752    1.000
    N5009    N        0.85126    0.51194    0.11655    1.000
    Si5010   Si       0.81259    0.52761    0.02165    1.000
    N5011    N        0.83573    0.71240    0.01571    1.000
    Si5012   Si       0.83342    0.65975    0.09281    1.000
    N5013    N        0.82987    0.64251    0.01065    1.000
    N5014    N        0.85542    0.68787    0.11691    1.000
    Si5015   Si       0.86861    0.64239    0.02956    1.000
    N5016    N        0.87178    0.64829    0.07217    1.000
    N5017    N        0.82842    0.75563    0.11161    1.000
    Si5018   Si       0.85875    0.60046    0.12100    1.000
    Si5019   Si       0.84953    0.58544    0.20007    1.000
    N5020    N        0.81756    0.61101    0.21810    1.000
    N5021    N        0.84817    0.54887    0.22329    1.000
    Si5022   Si       0.82885    0.51741    0.20168    1.000
    N5023    N        0.84602    0.57872    0.15548    1.000
    Si5024   Si       0.82784    0.54491    0.13431    1.000
    N5025    N        0.84129    0.72309    0.17399    1.000
    N5026    N        0.86796    0.70596    0.23584    1.000
    Si5027   Si       0.85504    0.72808    0.13206    1.000
    N5028    N        0.84972    0.58392    0.28633    1.000
    Si5029   Si       0.85628    0.54624    0.26698    1.000
    Si5030   Si       0.82759    0.61276    0.26260    1.000
    Si5031   Si       0.86306    0.59458    0.32557    1.000
    N5032    N        0.82140    0.59757    0.34826    1.000
    N5033    N        0.83180    0.51653    0.28511    1.000
    N5034    N        0.86466    0.51256    0.34465    1.000
    N5035    N        0.86191    0.63981    0.25838    1.000
    N5036    N        0.83087    0.67964    0.31117    1.000
    Si5037   Si       0.84650    0.67885    0.27061    1.000
    Si5038   Si       0.86610    0.67557    0.33866    1.000
    N5039    N        0.81174    0.55147    0.40425    1.000
    Si5040   Si       0.82903    0.53357    0.44058    1.000
    Si5041   Si       0.83071    0.58871    0.39097    1.000
    N5042    N        0.86502    0.59409    0.48447    1.000
    N5043    N        0.82147    0.62235    0.41928    1.000
    N5044    N        0.87193    0.54006    0.44141    1.000
    N5045    N        0.85128    0.66774    0.38083    1.000
    N5046    N        0.84749    0.73193    0.40728    1.000
    Si5047   Si       0.86279    0.63807    0.40857    1.000
    Si5048   Si       0.82015    0.69743    0.39578    1.000
    N5049    N        0.82641    0.64828    0.48575    1.000
    Si5050   Si       0.86815    0.63848    0.48553    1.000
    N5051    N        0.84307    0.55080    0.53975    1.000
    N5052    N        0.83191    0.60805    0.58885    1.000
    Si5053   Si       0.83359    0.57214    0.50124    1.000
    Si5054   Si       0.84390    0.72734    0.58044    1.000
    Si5055   Si       0.84534    0.72568    0.50637    1.000
    N5056    N        0.85947    0.70878    0.54404    1.000
    N5057    N        0.85512    0.70979    0.61746    1.000
    Si5058   Si       0.85660    0.52870    0.66721    1.000
    N5059    N        0.83247    0.59953    0.70764    1.000
    Si5060   Si       0.81730    0.62651    0.67665    1.000
    N5061    N        0.81787    0.53707    0.68275    1.000
    Si5062   Si       0.87008    0.57674    0.72269    1.000
    N5063    N        0.84499    0.69826    0.69051    1.000
    Si5064   Si       0.86806    0.67109    0.62618    1.000
    N5065    N        0.83629    0.64468    0.64164    1.000
    Si5066   Si       0.84112    0.72509    0.65475    1.000
    N5067    N        0.85004    0.61107    0.85412    1.000
    N5068    N        0.83634    0.60069    0.78357    1.000
    N5069    N        0.82624    0.53619    0.81090    1.000
    Si5070   Si       0.83050    0.55845    0.77401    1.000
    N5071    N        0.86659    0.52626    0.86681    1.000
    Si5072   Si       0.86764    0.52888    0.82400    1.000
    Si5073   Si       0.86705    0.60642    0.81359    1.000
    N5074    N        0.86348    0.54443    0.75105    1.000
    N5075    N        0.83881    0.70918    0.84182    1.000
    Si5076   Si       0.86238    0.72865    0.80859    1.000
    N5077    N        0.82607    0.66451    0.75299    1.000
    N5078    N        0.82725    0.74875    0.78813    1.000
    N5079    N        0.81792    0.55395    0.91500    1.000
    Si5080   Si       0.83039    0.51710    0.89232    1.000
    Si5081   Si       0.83440    0.57938    0.94602    1.000
    N5082    N        0.84644    0.61981    0.92891    1.000
    N5083    N        0.86551    0.56381    0.97177    1.000
    Si5084   Si       0.86735    0.62465    0.89103    1.000
    N5085    N        0.81599    0.50960    0.98290    1.000
    Si5086   Si       0.82591    0.64232    0.96227    1.000
    N5087    N        0.85880    0.73333    0.90183    1.000
    Si5088   Si       0.84235    0.72164    0.94173    1.000
    N5089    N        0.82574    0.68138    0.94418    1.000
    Si5090   Si       0.87247    0.70486    0.87035    1.000
    Si5091   Si       0.84973    0.79588    0.10156    1.000
    N5092    N        0.84434    0.87109    0.02453    1.000
    N5093    N        0.82578    0.77548    0.02260    1.000
    N5094    N        0.82308    0.82966    0.09569    1.000
    Si5095   Si       0.82217    0.85829    0.06315    1.000
    Si5096   Si       0.86689    0.78534    0.02925    1.000
    N5097    N        0.82263    0.89485    0.08583    1.000
    N5098    N        0.83436    0.95530    0.08427    1.000
    N5099    N        0.84211    0.94207    0.02041    1.000
    Si5100   Si       0.82328    0.90448    0.01143    1.000
    Si5101   Si       0.85018    0.91378    0.11401    1.000
    Si5102   Si       0.81799    0.99572    0.07972    1.000
    N5103    N        0.81525    0.84468    0.16096    1.000
    Si5104   Si       0.85879    0.84460    0.15464    1.000
    N5105    N        0.81783    0.85868    0.22830    1.000
    Si5106   Si       0.85795    0.87631    0.22307    1.000
    N5107    N        0.87016    0.80602    0.13943    1.000
    Si5108   Si       0.84511    0.94793    0.18738    1.000
    N5109    N        0.82149    0.95704    0.22387    1.000
    N5110    N        0.83161    0.93615    0.14812    1.000
    N5111    N        0.86457    0.98711    0.18144    1.000
    N5112    N        0.85035    0.86885    0.32164    1.000
    N5113    N        0.84684    0.80267    0.31521    1.000
    Si5114   Si       0.81729    0.81947    0.24746    1.000
    N5115    N        0.86019    0.80628    0.24624    1.000
    N5116    N        0.83035    0.99390    0.28745    1.000
    Si5117   Si       0.84371    0.96395    0.25894    1.000
    N5118    N        0.85479    0.92776    0.27954    1.000
    Si5119   Si       0.83722    0.98395    0.35939    1.000
    N5120    N        0.86444    0.95133    0.35359    1.000
    Si5121   Si       0.86191    0.90722    0.34479    1.000
    N5122    N        0.81396    0.90251    0.35931    1.000
    Si5123   Si       0.83117    0.76701    0.42416    1.000
    N5124    N        0.85194    0.80110    0.43675    1.000
    Si5125   Si       0.83305    0.83867    0.44801    1.000
    N5126    N        0.85565    0.87049    0.46847    1.000
    N5127    N        0.84045    0.98464    0.40316    1.000
    N5128    N        0.82422    0.91892    0.43139    1.000
    N5129    N        0.87120    0.88839    0.38558    1.000
    Si5130   Si       0.83321    0.90986    0.47403    1.000
    Si5131   Si       0.85286    0.97971    0.48245    1.000
    Si5132   Si       0.83024    0.89023    0.39953    1.000
    N5133    N        0.86162    0.93871    0.48882    1.000
    Si5134   Si       0.83741    0.83657    0.58613    1.000
    N5135    N        0.84736    0.76958    0.51131    1.000
    N5136    N        0.86236    0.76535    0.57783    1.000
    N5137    N        0.86198    0.82961    0.55113    1.000
    N5138    N        0.83308    0.88041    0.58887    1.000
    N5139    N        0.83267    0.94197    0.56201    1.000
    Si5140   Si       0.82346    0.98564    0.55304    1.000
    Si5141   Si       0.86059    0.91358    0.57809    1.000
    N5142    N        0.85012    0.00360    0.51809    1.000
    N5143    N        0.84595    0.01076    0.58256    1.000
    Si5144   Si       0.81720    0.01129    0.61547    1.000
    N5145    N        0.86315    0.82040    0.61760    1.000
    Si5146   Si       0.85173    0.83494    0.65471    1.000
    N5147    N        0.82233    0.85569    0.73433    1.000
    N5148    N        0.84310    0.87732    0.66659    1.000
    N5149    N        0.86145    0.76386    0.65666    1.000
    N5150    N        0.87022    0.76925    0.73339    1.000
    N5151    N        0.86199    0.00114    0.71976    1.000
    N5152    N        0.83619    0.98555    0.64243    1.000
    Si5153   Si       0.81938    0.00348    0.71628    1.000
    N5154    N        0.84451    0.92785    0.74250    1.000
    N5155    N        0.84778    0.81656    0.78669    1.000
    Si5156   Si       0.84523    0.85798    0.77045    1.000
    Si5157   Si       0.84028    0.78053    0.76195    1.000
    Si5158   Si       0.81724    0.87538    0.84102    1.000
    N5159    N        0.85179    0.87079    0.86544    1.000
    N5160    N        0.82712    0.88352    0.80057    1.000
    N5161    N        0.83137    0.96314    0.80231    1.000
    N5162    N        0.85330    0.94334    0.86071    1.000
    Si5163   Si       0.86872    0.96139    0.82488    1.000
    N5164    N        0.84905    0.80537    0.87739    1.000
    Si5165   Si       0.85500    0.81123    0.95960    1.000
    N5166    N        0.85310    0.85042    0.93712    1.000
    Si5167   Si       0.81882    0.87695    0.93424    1.000
    Si5168   Si       0.84569    0.97239    0.98978    1.000
    Si5169   Si       0.81499    0.00171    0.92668    1.000
    N5170    N        0.81869    0.97040    0.95573    1.000
    N5171    N        0.81908    0.91350    0.90662    1.000
    N5172    N        0.81556    0.90414    0.96933    1.000
    Si5173   Si       0.85999    0.90974    0.88662    1.000
    Si5174   Si       0.89428    0.09150    0.05101    1.000
    N5175    N        0.89434    0.05468    0.02645    1.000
    Si5176   Si       0.88315    0.12386    0.11692    1.000
    N5177    N        0.87556    0.08983    0.08983    1.000
    Si5178   Si       0.89353    0.22564    0.04328    1.000
    N5179    N        0.88607    0.18712    0.02427    1.000
    N5180    N        0.89274    0.15469    0.08550    1.000
    Si5181   Si       0.87682    0.22531    0.11599    1.000
    N5182    N        0.87530    0.25629    0.02020    1.000
    N5183    N        0.88086    0.02687    0.11724    1.000
    N5184    N        0.92546    0.12411    0.12565    1.000
    N5185    N        0.91057    0.02967    0.18797    1.000
    Si5186   Si       0.87739    0.01395    0.21537    1.000
    N5187    N        0.88573    0.09559    0.23917    1.000
    N5188    N        0.89721    0.17859    0.17583    1.000
    N5189    N        0.90742    0.25179    0.18944    1.000
    N5190    N        0.89719    0.20314    0.23700    1.000
    N5191    N        0.91825    0.21944    0.12459    1.000
    Si5192   Si       0.92070    0.21657    0.16713    1.000
    Si5193   Si       0.88152    0.24101    0.22346    1.000
    Si5194   Si       0.92000    0.17654    0.21212    1.000
    Si5195   Si       0.91042    0.06890    0.31888    1.000
    N5196    N        0.88930    0.04586    0.28973    1.000
    N5197    N        0.88118    0.08911    0.34652    1.000
    Si5198   Si       0.90497    0.12501    0.26218    1.000
    N5199    N        0.92967    0.10349    0.29475    1.000
    N5200    N        0.89438    0.21541    0.30372    1.000
    N5201    N        0.88177    0.16864    0.34752    1.000
    Si5202   Si       0.91528    0.18645    0.32817    1.000
    Si5203   Si       0.91510    0.24929    0.28877    1.000
    Si5204   Si       0.87394    0.19304    0.27148    1.000
    N5205    N        0.87216    0.15012    0.27602    1.000
    Si5206   Si       0.89711    0.04601    0.46422    1.000
    N5207    N        0.90559    0.10003    0.44808    1.000
    Si5208   Si       0.87269    0.00974    0.41554    1.000
    Si5209   Si       0.92971    0.23417    0.38626    1.000
    N5210    N        0.88604    0.23316    0.38170    1.000
    N5211    N        0.89444    0.17179    0.44417    1.000
    Si5212   Si       0.90167    0.21334    0.45257    1.000
    Si5213   Si       0.91883    0.14061    0.45907    1.000
    N5214    N        0.89234    0.11989    0.58562    1.000
    N5215    N        0.88747    0.05698    0.61212    1.000
    Si5216   Si       0.88125    0.02773    0.53280    1.000
    N5217    N        0.91403    0.03028    0.50257    1.000
    Si5218   Si       0.88575    0.01529    0.60069    1.000
    N5219    N        0.92186    0.22340    0.60207    1.000
    N5220    N        0.90790    0.17573    0.55117    1.000
    Si5221   Si       0.88470    0.20358    0.52543    1.000
    Si5222   Si       0.91122    0.18162    0.60061    1.000
    Si5223   Si       0.91046    0.24944    0.57020    1.000
    Si5224   Si       0.87885    0.14406    0.55407    1.000
    N5225    N        0.87220    0.23232    0.55531    1.000
    N5226    N        0.91474    0.21449    0.49510    1.000
    N5227    N        0.87240    0.05358    0.67575    1.000
    N5228    N        0.91669    0.10902    0.64373    1.000
    Si5229   Si       0.90695    0.06716    0.65125    1.000
    Si5230   Si       0.87912    0.04257    0.71739    1.000
    N5231    N        0.92066    0.04108    0.72719    1.000
    Si5232   Si       0.91743    0.12949    0.73561    1.000
    N5233    N        0.89140    0.13564    0.70035    1.000
    N5234    N        0.88289    0.25361    0.71575    1.000
    Si5235   Si       0.91233    0.14661    0.66375    1.000
    N5236    N        0.88927    0.17298    0.63735    1.000
    N5237    N        0.88414    0.07060    0.80786    1.000
    Si5238   Si       0.92398    0.07828    0.82515    1.000
    N5239    N        0.88635    0.13251    0.76661    1.000
    Si5240   Si       0.91226    0.19135    0.81720    1.000
    N5241    N        0.88222    0.18289    0.84696    1.000
    Si5242   Si       0.89002    0.23806    0.75708    1.000
    N5243    N        0.89396    0.19733    0.77902    1.000
    N5244    N        0.92946    0.25201    0.77067    1.000
    N5245    N        0.87078    0.25290    0.84394    1.000
    Si5246   Si       0.89901    0.05900    0.98358    1.000
    N5247    N        0.89254    0.08490    0.91158    1.000
    N5248    N        0.91295    0.02984    0.95531    1.000
    N5249    N        0.92141    0.19775    0.96243    1.000
    Si5250   Si       0.91063    0.21741    0.92545    1.000
    Si5251   Si       0.88445    0.18318    0.98043    1.000
    N5252    N        0.88818    0.14091    0.96970    1.000
    N5253    N        0.90795    0.27883    0.08005    1.000
    Si5254   Si       0.88715    0.29146    0.04455    1.000
    N5255    N        0.90693    0.32535    0.02714    1.000
    Si5256   Si       0.88384    0.35829    0.01198    1.000
    Si5257   Si       0.87834    0.29759    0.10600    1.000
    Si5258   Si       0.90239    0.37474    0.08045    1.000
    N5259    N        0.89694    0.39133    0.04036    1.000
    N5260    N        0.91753    0.40642    0.10468    1.000
    N5261    N        0.88764    0.46243    0.04378    1.000
    Si5262   Si       0.91401    0.43006    0.03065    1.000
    Si5263   Si       0.89995    0.50065    0.02701    1.000
    Si5264   Si       0.87758    0.41582    0.12300    1.000
    N5265    N        0.90271    0.32029    0.13432    1.000
    Si5266   Si       0.89189    0.32851    0.17498    1.000
    N5267    N        0.89716    0.37339    0.17627    1.000
    N5268    N        0.92497    0.31582    0.19975    1.000
    N5269    N        0.87141    0.42667    0.21364    1.000
    Si5270   Si       0.88480    0.46351    0.19341    1.000
    N5271    N        0.89328    0.45125    0.15155    1.000
    N5272    N        0.91330    0.48182    0.21893    1.000
    N5273    N        0.89542    0.34829    0.28567    1.000
    N5274    N        0.91131    0.28736    0.31020    1.000
    Si5275   Si       0.90889    0.30934    0.27310    1.000
    Si5276   Si       0.88514    0.35505    0.36381    1.000
    N5277    N        0.91899    0.33088    0.36540    1.000
    Si5278   Si       0.91966    0.38228    0.29924    1.000
    N5279    N        0.90278    0.27022    0.24921    1.000
    N5280    N        0.90242    0.38816    0.33731    1.000
    N5281    N        0.91687    0.41266    0.26797    1.000
    N5282    N        0.90165    0.45738    0.33931    1.000
    Si5283   Si       0.90246    0.49085    0.25961    1.000
    Si5284   Si       0.90473    0.42084    0.36336    1.000
    Si5285   Si       0.87571    0.42544    0.25713    1.000
    N5286    N        0.89173    0.29530    0.42054    1.000
    N5287    N        0.89376    0.34386    0.47070    1.000
    Si5288   Si       0.91719    0.37315    0.48928    1.000
    Si5289   Si       0.86999    0.32948    0.43895    1.000
    N5290    N        0.87261    0.47115    0.47556    1.000
    N5291    N        0.87775    0.48099    0.40215    1.000
    Si5292   Si       0.90419    0.49851    0.48703    1.000
    N5293    N        0.92866    0.50655    0.45103    1.000
    N5294    N        0.90153    0.28857    0.58706    1.000
    Si5295   Si       0.90774    0.36260    0.56947    1.000
    N5296    N        0.91693    0.35455    0.52841    1.000
    Si5297   Si       0.90474    0.31719    0.50756    1.000
    N5298    N        0.91122    0.40580    0.57635    1.000
    Si5299   Si       0.88152    0.42580    0.60207    1.000
    N5300    N        0.89156    0.46592    0.61634    1.000
    Si5301   Si       0.87766    0.50358    0.59895    1.000
    N5302    N        0.92577    0.47575    0.51430    1.000
    N5303    N        0.89820    0.41201    0.49469    1.000
    Si5304   Si       0.91776    0.30940    0.62515    1.000
    N5305    N        0.91748    0.31372    0.70996    1.000
    N5306    N        0.88143    0.32579    0.64546    1.000
    Si5307   Si       0.91764    0.27209    0.69650    1.000
    Si5308   Si       0.90009    0.35356    0.72108    1.000
    N5309    N        0.91721    0.27119    0.65266    1.000
    N5310    N        0.92713    0.37502    0.68869    1.000
    N5311    N        0.89806    0.43764    0.68290    1.000
    N5312    N        0.87427    0.49299    0.68202    1.000
    Si5313   Si       0.89294    0.39713    0.67219    1.000
    Si5314   Si       0.90502    0.47209    0.65828    1.000
    N5315    N        0.87686    0.39450    0.63275    1.000
    Si5316   Si       0.86858    0.45872    0.70747    1.000
    N5317    N        0.88575    0.47139    0.74581    1.000
    Si5318   Si       0.88709    0.29453    0.85034    1.000
    N5319    N        0.90525    0.37269    0.75860    1.000
    N5320    N        0.92551    0.29731    0.83122    1.000
    N5321    N        0.92005    0.42891    0.79953    1.000
    Si5322   Si       0.88408    0.45117    0.78685    1.000
    N5323    N        0.88075    0.49315    0.80147    1.000
    Si5324   Si       0.90922    0.29720    0.92347    1.000
    Si5325   Si       0.89977    0.36344    0.94766    1.000
    N5326    N        0.88951    0.32075    0.95374    1.000
    N5327    N        0.87918    0.30288    0.89163    1.000
    N5328    N        0.87979    0.36894    0.90935    1.000
    N5329    N        0.92555    0.25809    0.92960    1.000
    N5330    N        0.89066    0.50441    0.98353    1.000
    N5331    N        0.91820    0.43229    0.98665    1.000
    N5332    N        0.92249    0.41575    0.88000    1.000
    Si5333   Si       0.92596    0.45020    0.90668    1.000
    N5334    N        0.88834    0.43763    0.92607    1.000
    N5335    N        0.87308    0.38308    0.97612    1.000
    Si5336   Si       0.88204    0.40923    0.89119    1.000
    Si5337   Si       0.87951    0.42729    0.96633    1.000
    N5338    N        0.92368    0.48742    0.88500    1.000
    N5339    N        0.89124    0.60573    0.02143    1.000
    N5340    N        0.88753    0.53922    0.04342    1.000
    Si5341   Si       0.91315    0.56084    0.07439    1.000
    N5342    N        0.87505    0.57014    0.09557    1.000
    Si5343   Si       0.87056    0.56774    0.01443    1.000
    N5344    N        0.89182    0.67515    0.01234    1.000
    Si5345   Si       0.89189    0.66204    0.10872    1.000
    N5346    N        0.89347    0.74996    0.03104    1.000
    Si5347   Si       0.87735    0.71593    0.00612    1.000
    N5348    N        0.93080    0.68195    0.10768    1.000
    N5349    N        0.88817    0.60494    0.20140    1.000
    Si5350   Si       0.91344    0.60967    0.16554    1.000
    Si5351   Si       0.89501    0.62512    0.23887    1.000
    N5352    N        0.89139    0.62713    0.13404    1.000
    Si5353   Si       0.87882    0.72576    0.19728    1.000
    N5354    N        0.89596    0.74122    0.13394    1.000
    N5355    N        0.92479    0.65885    0.23737    1.000
    Si5356   Si       0.92928    0.71405    0.14197    1.000
    N5357    N        0.91428    0.70115    0.18175    1.000
    N5358    N        0.89554    0.53276    0.26812    1.000
    N5359    N        0.90117    0.57281    0.33172    1.000
    Si5360   Si       0.90525    0.53129    0.34700    1.000
    Si5361   Si       0.92019    0.61262    0.33602    1.000
    N5362    N        0.91991    0.60102    0.26360    1.000
    N5363    N        0.88212    0.63310    0.33604    1.000
    N5364    N        0.88941    0.68657    0.29303    1.000
    Si5365   Si       0.90568    0.72340    0.31721    1.000
    N5366    N        0.88538    0.71337    0.35263    1.000
    Si5367   Si       0.90599    0.69552    0.25427    1.000
    N5368    N        0.89177    0.75373    0.29311    1.000
    N5369    N        0.91999    0.53874    0.38753    1.000
    Si5370   Si       0.91335    0.57970    0.40323    1.000
    Si5371   Si       0.89155    0.56490    0.46946    1.000
    Si5372   Si       0.90071    0.51445    0.41984    1.000
    N5373    N        0.92915    0.57284    0.44538    1.000
    N5374    N        0.87325    0.59679    0.39581    1.000
    Si5375   Si       0.88874    0.72971    0.39316    1.000
    N5376    N        0.91755    0.70577    0.41499    1.000
    Si5377   Si       0.90108    0.69295    0.45345    1.000
    N5378    N        0.88214    0.65196    0.44509    1.000
    N5379    N        0.87105    0.71594    0.47212    1.000
    N5380    N        0.89242    0.59121    0.55696    1.000
    Si5381   Si       0.88717    0.54910    0.54349    1.000
    N5382    N        0.90175    0.53908    0.50257    1.000
    N5383    N        0.90640    0.51681    0.56719    1.000
    Si5384   Si       0.87423    0.61635    0.58823    1.000
    N5385    N        0.87956    0.65862    0.58654    1.000
    Si5386   Si       0.89344    0.68125    0.55342    1.000
    N5387    N        0.89304    0.65494    0.51706    1.000
    N5388    N        0.92560    0.70817    0.56964    1.000
    N5389    N        0.89646    0.60851    0.62501    1.000
    Si5390   Si       0.90058    0.56930    0.64510    1.000
    N5391    N        0.88085    0.56369    0.68337    1.000
    Si5392   Si       0.92331    0.62746    0.72518    1.000
    N5393    N        0.87510    0.53528    0.62965    1.000
    N5394    N        0.90632    0.59171    0.74240    1.000
    Si5395   Si       0.88590    0.68305    0.69396    1.000
    N5396    N        0.90822    0.71590    0.70812    1.000
    N5397    N        0.89960    0.67287    0.65456    1.000
    Si5398   Si       0.92385    0.64002    0.64434    1.000
    N5399    N        0.89092    0.65601    0.72718    1.000
    N5400    N        0.88817    0.56670    0.80859    1.000
    Si5401   Si       0.91872    0.56541    0.77792    1.000
    N5402    N        0.92908    0.52465    0.76283    1.000
    Si5403   Si       0.88712    0.51008    0.76214    1.000
    Si5404   Si       0.86813    0.66386    0.76360    1.000
    Si5405   Si       0.91658    0.75132    0.83532    1.000
    Si5406   Si       0.91301    0.67641    0.81327    1.000
    N5407    N        0.88425    0.64570    0.80079    1.000
    N5408    N        0.89904    0.71232    0.83439    1.000
    N5409    N        0.87766    0.70758    0.77389    1.000
    Si5410   Si       0.89578    0.73501    0.74504    1.000
    N5411    N        0.90994    0.60907    0.88844    1.000
    Si5412   Si       0.89213    0.51604    0.89897    1.000
    N5413    N        0.91153    0.54578    0.92161    1.000
    Si5414   Si       0.90174    0.54094    0.96292    1.000
    Si5415   Si       0.92399    0.65051    0.88342    1.000
    N5416    N        0.87899    0.72886    0.96682    1.000
    N5417    N        0.88317    0.66735    0.88512    1.000
    Si5418   Si       0.90906    0.75902    0.95547    1.000
    N5419    N        0.90941    0.85765    0.04275    1.000
    Si5420   Si       0.91404    0.82468    0.07289    1.000
    Si5421   Si       0.88106    0.85473    0.01036    1.000
    N5422    N        0.87764    0.80090    0.06841    1.000
    N5423    N        0.92290    0.84545    0.10899    1.000
    N5424    N        0.87475    0.81426    0.99856    1.000
    Si5425   Si       0.91239    0.88947    0.10854    1.000
    N5426    N        0.88307    0.98998    0.05798    1.000
    N5427    N        0.90569    0.93113    0.02894    1.000
    N5428    N        0.88699    0.91978    0.08960    1.000
    Si5429   Si       0.90545    0.00138    0.09289    1.000
    Si5430   Si       0.87436    0.94813    0.05499    1.000
    Si5431   Si       0.93014    0.89665    0.04167    1.000
    Si5432   Si       0.88750    0.80890    0.21379    1.000
    Si5433   Si       0.90112    0.77838    0.15196    1.000
    N5434    N        0.87899    0.84857    0.19268    1.000
    N5435    N        0.92670    0.81875    0.23196    1.000
    N5436    N        0.89069    0.76891    0.19407    1.000
    N5437    N        0.87355    0.88198    0.13722    1.000
    Si5438   Si       0.89163    0.00634    0.15383    1.000
    N5439    N        0.91107    0.97729    0.12943    1.000
    Si5440   Si       0.89868    0.89306    0.17795    1.000
    N5441    N        0.86665    0.91181    0.20000    1.000
    N5442    N        0.90824    0.82198    0.29772    1.000
    Si5443   Si       0.91685    0.84525    0.26372    1.000
    N5444    N        0.88513    0.87234    0.25579    1.000
    N5445    N        0.89505    0.82642    0.36552    1.000
    Si5446   Si       0.87629    0.79186    0.28464    1.000
    Si5447   Si       0.87594    0.83313    0.32753    1.000
    N5448    N        0.90496    0.98294    0.31159    1.000
    N5449    N        0.90323    0.90300    0.32676    1.000
    Si5450   Si       0.90291    0.97434    0.35430    1.000
    Si5451   Si       0.91822    0.97023    0.27116    1.000
    Si5452   Si       0.88970    0.90517    0.28520    1.000
    N5453    N        0.91975    0.92856    0.26442    1.000
    N5454    N        0.88478    0.98815    0.24896    1.000
    Si5455   Si       0.92306    0.79363    0.37497    1.000
    Si5456   Si       0.89952    0.86531    0.47135    1.000
    N5457    N        0.90136    0.77080    0.40335    1.000
    Si5458   Si       0.89374    0.80300    0.43227    1.000
    Si5459   Si       0.90148    0.85967    0.39104    1.000
    N5460    N        0.90046    0.84401    0.43168    1.000
    N5461    N        0.92543    0.79303    0.46347    1.000
    N5462    N        0.92110    0.90318    0.47913    1.000
    N5463    N        0.90899    0.00006    0.39068    1.000
    Si5464   Si       0.92179    0.98661    0.47688    1.000
    N5465    N        0.88306    0.00029    0.45655    1.000
    Si5466   Si       0.89705    0.85500    0.54610    1.000
    N5467    N        0.91514    0.78127    0.53651    1.000
    N5468    N        0.91296    0.84194    0.50680    1.000
    N5469    N        0.91902    0.76682    0.60915    1.000
    Si5470   Si       0.87815    0.77768    0.61524    1.000
    N5471    N        0.92431    0.85023    0.57737    1.000
    Si5472   Si       0.87204    0.78735    0.54276    1.000
    Si5473   Si       0.89840    0.92332    0.51013    1.000
    N5474    N        0.88546    0.90057    0.54476    1.000
    N5475    N        0.91854    0.96077    0.51262    1.000
    N5476    N        0.87185    0.92569    0.61795    1.000
    N5477    N        0.90499    0.00541    0.56159    1.000
    Si5478   Si       0.88378    0.78036    0.69315    1.000
    Si5479   Si       0.91878    0.84253    0.67484    1.000
    N5480    N        0.88100    0.82257    0.68310    1.000
    N5481    N        0.92612    0.77288    0.68114    1.000
    N5482    N        0.91042    0.88306    0.65696    1.000
    Si5483   Si       0.87101    0.96370    0.64098    1.000
    N5484    N        0.87454    0.94176    0.67978    1.000
    Si5485   Si       0.87429    0.90380    0.65522    1.000
    N5486    N        0.90427    0.94570    0.74354    1.000
    N5487    N        0.90404    0.99035    0.63046    1.000
    Si5488   Si       0.86982    0.95653    0.71961    1.000
    Si5489   Si       0.88811    0.81083    0.80361    1.000
    Si5490   Si       0.92034    0.85007    0.75435    1.000
    N5491    N        0.88492    0.76678    0.81048    1.000
    N5492    N        0.92035    0.81292    0.77494    1.000
    N5493    N        0.90268    0.83020    0.83790    1.000
    N5494    N        0.88472    0.87395    0.76382    1.000
    N5495    N        0.89600    0.93224    0.80635    1.000
    Si5496   Si       0.88275    0.91678    0.76621    1.000
    N5497    N        0.87968    0.00367    0.82683    1.000
    Si5498   Si       0.92315    0.00712    0.82340    1.000
    Si5499   Si       0.87924    0.83803    0.87261    1.000
    N5500    N        0.91209    0.76993    0.87374    1.000
    Si5501   Si       0.89124    0.86881    0.93409    1.000
    N5502    N        0.90406    0.87199    0.97601    1.000
    N5503    N        0.91079    0.84645    0.90445    1.000
    N5504    N        0.88206    0.78611    0.93606    1.000
    Si5505   Si       0.87492    0.77515    0.89523    1.000
    Si5506   Si       0.91921    0.93717    0.92357    1.000
    N5507    N        0.88693    0.90895    0.91909    1.000
    Si5508   Si       0.88727    0.99930    0.94028    1.000
    N5509    N        0.90842    0.97711    0.90967    1.000
    N5510    N        0.88501    0.97073    0.97384    1.000
    Si5511   Si       0.92126    0.95474    0.99604    1.000
    N5512    N        0.94130    0.02001    0.07698    1.000
    Si5513   Si       0.98191    0.02872    0.06710    1.000
    N5514    N        0.99011    0.11914    0.11133    1.000
    N5515    N        0.93149    0.11080    0.05412    1.000
    Si5516   Si       0.96491    0.12977    0.03264    1.000
    Si5517   Si       0.93717    0.14161    0.08670    1.000
    N5518    N        0.93385    0.22838    0.05460    1.000
    N5519    N        0.96592    0.16540    0.05947    1.000
    Si5520   Si       0.97132    0.20599    0.04851    1.000
    N5521    N        0.98118    0.21610    0.00480    1.000
    N5522    N        0.95780    0.08700    0.22423    1.000
    N5523    N        0.96479    0.06948    0.15720    1.000
    Si5524   Si       0.94912    0.05563    0.19713    1.000
    N5525    N        0.97678    0.02379    0.21416    1.000
    Si5526   Si       0.96304    0.11077    0.14382    1.000
    Si5527   Si       0.97286    0.12924    0.22239    1.000
    N5528    N        0.99702    0.18479    0.12776    1.000
    N5529    N        0.97455    0.13557    0.17624    1.000
    N5530    N        0.93466    0.14431    0.23515    1.000
    N5531    N        0.95194    0.19912    0.19274    1.000
    Si5532   Si       0.98267    0.22082    0.21083    1.000
    Si5533   Si       0.96139    0.08697    0.26787    1.000
    Si5534   Si       0.97714    0.04500    0.32614    1.000
    N5535    N        0.97413    0.04857    0.28248    1.000
    Si5536   Si       0.98292    0.01891    0.25432    1.000
    N5537    N        0.93662    0.04193    0.34129    1.000
    Si5538   Si       0.95663    0.13635    0.30575    1.000
    N5539    N        0.98596    0.12119    0.27297    1.000
    N5540    N        0.96456    0.13913    0.34732    1.000
    N5541    N        0.94199    0.20110    0.36065    1.000
    N5542    N        0.95760    0.24593    0.29119    1.000
    N5543    N        0.94443    0.17627    0.29555    1.000
    Si5544   Si       0.97631    0.20609    0.28887    1.000
    Si5545   Si       0.97933    0.18095    0.35672    1.000
    Si5546   Si       0.98006    0.10671    0.37200    1.000
    N5547    N        0.97827    0.08440    0.46538    1.000
    Si5548   Si       0.94764    0.09042    0.43408    1.000
    N5549    N        0.95328    0.07759    0.39235    1.000
    Si5550   Si       0.97251    0.02249    0.44220    1.000
    Si5551   Si       0.93785    0.03512    0.38804    1.000
    N5552    N        0.93463    0.04199    0.43881    1.000
    N5553    N        0.98001    0.24809    0.48673    1.000
    N5554    N        0.93313    0.23456    0.42967    1.000
    Si5555   Si       0.97181    0.23574    0.44613    1.000
    N5556    N        0.95378    0.13698    0.43107    1.000
    N5557    N        0.95978    0.07988    0.60423    1.000
    N5558    N        0.95392    0.12359    0.55835    1.000
    Si5559   Si       0.95724    0.02803    0.51448    1.000
    Si5560   Si       0.97894    0.08730    0.56454    1.000
    N5561    N        0.96750    0.06759    0.52828    1.000
    Si5562   Si       0.97008    0.10518    0.50440    1.000
    Si5563   Si       0.93427    0.11658    0.60052    1.000
    N5564    N        0.93797    0.13632    0.49805    1.000
    N5565    N        0.94523    0.24870    0.54558    1.000
    Si5566   Si       0.94571    0.15909    0.53562    1.000
    N5567    N        0.97445    0.18990    0.52823    1.000
    Si5568   Si       0.95325    0.22375    0.51036    1.000
    N5569    N        0.94764    0.15932    0.61184    1.000
    N5570    N        0.98359    0.03827    0.73609    1.000
    Si5571   Si       0.97203    0.04768    0.63035    1.000
    Si5572   Si       0.95483    0.05878    0.70585    1.000
    N5573    N        0.94591    0.05290    0.66340    1.000
    N5574    N        0.95159    0.10377    0.71542    1.000
    Si5575   Si       0.94361    0.24372    0.63002    1.000
    N5576    N        0.94891    0.24385    0.70586    1.000
    Si5577   Si       0.98489    0.23564    0.68258    1.000
    N5578    N        0.94612    0.16091    0.74281    1.000
    N5579    N        0.97278    0.21703    0.64772    1.000
    Si5580   Si       0.97553    0.17455    0.64116    1.000
    N5581    N        0.95308    0.15833    0.67524    1.000
    Si5582   Si       0.97380    0.14128    0.71120    1.000
    N5583    N        0.94932    0.07857    0.78880    1.000
    Si5584   Si       0.94763    0.04270    0.76301    1.000
    N5585    N        0.93758    0.04232    0.84698    1.000
    Si5586   Si       0.98858    0.09763    0.79017    1.000
    N5587    N        0.93194    0.10822    0.85564    1.000
    Si5588   Si       0.96313    0.13818    0.84578    1.000
    N5589    N        0.98052    0.21178    0.77406    1.000
    N5590    N        0.94536    0.16008    0.81233    1.000
    Si5591   Si       0.97018    0.16935    0.77667    1.000
    Si5592   Si       0.96314    0.21941    0.86368    1.000
    N5593    N        0.93575    0.22453    0.83090    1.000
    Si5594   Si       0.96508    0.24229    0.74806    1.000
    Si5595   Si       0.92803    0.12667    0.96701    1.000
    Si5596   Si       0.96840    0.04166    0.87539    1.000
    Si5597   Si       0.94952    0.05225    0.94741    1.000
    N5598    N        0.95963    0.06954    0.90919    1.000
    N5599    N        0.97989    0.02613    0.95944    1.000
    N5600    N        0.93374    0.08381    0.97391    1.000
    N5601    N        0.94179    0.13345    0.92497    1.000
    Si5602   Si       0.93108    0.09971    0.89908    1.000
    Si5603   Si       0.96094    0.18794    0.97682    1.000
    Si5604   Si       0.96159    0.16811    0.91271    1.000
    N5605    N        0.95470    0.14792    0.99514    1.000
    N5606    N        0.93956    0.20044    0.89703    1.000
    N5607    N        0.98400    0.15717    0.87748    1.000
    N5608    N        0.98883    0.18071    0.94483    1.000
    N5609    N        0.96723    0.28715    0.04994    1.000
    Si5610   Si       0.94751    0.32656    0.04505    1.000
    N5611    N        0.97804    0.34911    0.02426    1.000
    N5612    N        0.93455    0.34442    0.08412    1.000
    N5613    N        0.97148    0.28884    0.11583    1.000
    Si5614   Si       0.94861    0.26297    0.08142    1.000
    Si5615   Si       0.94535    0.32668    0.12144    1.000
    N5616    N        0.94685    0.46618    0.10438    1.000
    N5617    N        0.95430    0.43275    0.04868    1.000
    Si5618   Si       0.95434    0.42638    0.09082    1.000
    Si5619   Si       0.95736    0.49837    0.07468    1.000
    N5620    N        0.94187    0.50292    0.03362    1.000
    N5621    N        0.96206    0.35666    0.15116    1.000
    Si5622   Si       0.95566    0.33818    0.22282    1.000
    N5623    N        0.97361    0.26380    0.20982    1.000
    N5624    N        0.95224    0.38161    0.21800    1.000
    Si5625   Si       0.93314    0.27751    0.21599    1.000
    N5626    N        0.95651    0.42793    0.16211    1.000
    N5627    N        0.94081    0.50348    0.16115    1.000
    Si5628   Si       0.93422    0.46322    0.14519    1.000
    Si5629   Si       0.94917    0.50569    0.20429    1.000
    Si5630   Si       0.93950    0.38628    0.17435    1.000
    N5631    N        0.98802    0.48935    0.21843    1.000
    N5632    N        0.97441    0.30888    0.32114    1.000
    Si5633   Si       0.97477    0.28640    0.28220    1.000
    N5634    N        0.95076    0.31222    0.25831    1.000
    Si5635   Si       0.93689    0.29989    0.34137    1.000
    N5636    N        0.96263    0.38273    0.29464    1.000
    N5637    N        0.96998    0.43897    0.33459    1.000
    N5638    N        0.93945    0.47949    0.27816    1.000
    Si5639   Si       0.93884    0.46863    0.32094    1.000
    Si5640   Si       0.95701    0.40503    0.25460    1.000
    Si5641   Si       0.98063    0.47843    0.26126    1.000
    N5642    N        0.98820    0.43403    0.26032    1.000
    N5643    N        0.94200    0.27344    0.37395    1.000
    N5644    N        0.96533    0.31433    0.42565    1.000
    N5645    N        0.95628    0.37109    0.47141    1.000
    Si5646   Si       0.96694    0.32876    0.46578    1.000
    N5647    N        0.94325    0.30425    0.49384    1.000
    Si5648   Si       0.93031    0.30486    0.40219    1.000
    Si5649   Si       0.97830    0.40324    0.45467    1.000
    Si5650   Si       0.95998    0.47771    0.44008    1.000
    N5651    N        0.96539    0.47952    0.39741    1.000
    Si5652   Si       0.97121    0.44104    0.37866    1.000
    N5653    N        0.93753    0.41888    0.39066    1.000
    N5654    N        0.95190    0.43941    0.46076    1.000
    N5655    N        0.96908    0.27003    0.60685    1.000
    Si5656   Si       0.97767    0.28610    0.50846    1.000
    Si5657   Si       0.97105    0.35656    0.61634    1.000
    N5658    N        0.93327    0.34526    0.59832    1.000
    Si5659   Si       0.98099    0.25724    0.56750    1.000
    Si5660   Si       0.94037    0.49215    0.55230    1.000
    Si5661   Si       0.95213    0.42035    0.56910    1.000
    N5662    N        0.96083    0.41863    0.52656    1.000
    N5663    N        0.95841    0.46124    0.57901    1.000
    N5664    N        0.98153    0.38994    0.58695    1.000
    Si5665   Si       0.93237    0.43805    0.49872    1.000
    N5666    N        0.98681    0.38253    0.65233    1.000
    N5667    N        0.95401    0.32173    0.64806    1.000
    Si5668   Si       0.94763    0.33464    0.68730    1.000
    N5669    N        0.97807    0.35182    0.71156    1.000
    N5670    N        0.97576    0.43038    0.70301    1.000
    N5671    N        0.94274    0.49058    0.65831    1.000
    N5672    N        0.97765    0.50214    0.71492    1.000
    Si5673   Si       0.97406    0.47125    0.68322    1.000
    Si5674   Si       0.96929    0.39112    0.69135    1.000
    Si5675   Si       0.98759    0.42989    0.74573    1.000
    Si5676   Si       0.95223    0.33026    0.82269    1.000
    N5677    N        0.97007    0.33023    0.78234    1.000
    N5678    N        0.94038    0.37048    0.82756    1.000
    Si5679   Si       0.94059    0.26190    0.81135    1.000
    N5680    N        0.98567    0.26721    0.81104    1.000
    Si5681   Si       0.98575    0.35977    0.75301    1.000
    N5682    N        0.96804    0.39618    0.76547    1.000
    N5683    N        0.97533    0.43045    0.84189    1.000
    N5684    N        0.96077    0.49621    0.82109    1.000
    N5685    N        0.97279    0.46269    0.77045    1.000
    Si5686   Si       0.95553    0.45233    0.80848    1.000
    Si5687   Si       0.95604    0.39347    0.86051    1.000
    Si5688   Si       0.96722    0.50392    0.75647    1.000
    Si5689   Si       0.95555    0.50713    0.86456    1.000
    Si5690   Si       0.92974    0.38853    0.78860    1.000
    N5691    N        0.94695    0.31604    0.91620    1.000
    Si5692   Si       0.96525    0.35516    0.92578    1.000
    Si5693   Si       0.96724    0.27322    0.92049    1.000
    N5694    N        0.98019    0.37058    0.88829    1.000
    N5695    N        0.93724    0.38242    0.94472    1.000
    N5696    N        0.97598    0.25831    0.87926    1.000
    N5697    N        0.95840    0.45123    0.93683    1.000
    N5698    N        0.98428    0.40751    0.98969    1.000
    Si5699   Si       0.98716    0.47816    0.95554    1.000
    Si5700   Si       0.95217    0.41887    0.96434    1.000
    N5701    N        0.94484    0.58491    0.05689    1.000
    N5702    N        0.93589    0.53127    0.09568    1.000
    Si5703   Si       0.96010    0.52554    0.00018    1.000
    N5704    N        0.98227    0.62782    0.10228    1.000
    Si5705   Si       0.93338    0.59477    0.01641    1.000
    Si5706   Si       0.98522    0.59809    0.06700    1.000
    Si5707   Si       0.96302    0.66369    0.08583    1.000
    N5708    N        0.96343    0.73253    0.03838    1.000
    N5709    N        0.96004    0.65685    0.04302    1.000
    Si5710   Si       0.93329    0.66509    0.01067    1.000
    Si5711   Si       0.98397    0.71912    0.00010    1.000
    Si5712   Si       0.99293    0.72757    0.06933    1.000
    Si5713   Si       0.95425    0.53828    0.13500    1.000
    N5714    N        0.94781    0.54513    0.22495    1.000
    Si5715   Si       0.97246    0.61225    0.14441    1.000
    N5716    N        0.94061    0.57979    0.14701    1.000
    N5717    N        0.96988    0.72907    0.14995    1.000
    N5718    N        0.97765    0.69428    0.20661    1.000
    Si5719   Si       0.94185    0.67192    0.19826    1.000
    N5720    N        0.94893    0.63680    0.17153    1.000
    Si5721   Si       0.97181    0.73138    0.22854    1.000
    N5722    N        0.96574    0.55846    0.28919    1.000
    Si5723   Si       0.97568    0.52661    0.31561    1.000
    Si5724   Si       0.92987    0.55829    0.26208    1.000
    N5725    N        0.94313    0.50919    0.33905    1.000
    Si5726   Si       0.94691    0.63548    0.26923    1.000
    N5727    N        0.94493    0.64042    0.31215    1.000
    Si5728   Si       0.96394    0.67281    0.33377    1.000
    N5729    N        0.94641    0.71033    0.32563    1.000
    Si5730   Si       0.97001    0.74153    0.34354    1.000
    N5731    N        0.93562    0.72472    0.25180    1.000
    N5732    N        0.93643    0.60655    0.37765    1.000
    N5733    N        0.98023    0.56446    0.48278    1.000
    N5734    N        0.97311    0.62256    0.43601    1.000
    Si5735   Si       0.96365    0.52202    0.37999    1.000
    Si5736   Si       0.96066    0.53818    0.45494    1.000
    Si5737   Si       0.97075    0.62466    0.39281    1.000
    Si5738   Si       0.95656    0.59914    0.46736    1.000
    N5739    N        0.98452    0.53828    0.41739    1.000
    N5740    N        0.93521    0.68682    0.47871    1.000
    Si5741   Si       0.97805    0.69645    0.48028    1.000
    Si5742   Si       0.95960    0.69775    0.40702    1.000
    N5743    N        0.97335    0.73306    0.38556    1.000
    N5744    N        0.96620    0.66592    0.37765    1.000
    N5745    N        0.98935    0.69594    0.43916    1.000
    N5746    N        0.95433    0.57945    0.57254    1.000
    N5747    N        0.97399    0.51984    0.53829    1.000
    N5748    N        0.97996    0.52089    0.60400    1.000
    N5749    N        0.93504    0.60860    0.50276    1.000
    Si5750   Si       0.93383    0.60498    0.54560    1.000
    Si5751   Si       0.98329    0.54840    0.57088    1.000
    Si5752   Si       0.95374    0.67807    0.58452    1.000
    N5753    N        0.94356    0.64710    0.55287    1.000
    Si5754   Si       0.93861    0.65268    0.50727    1.000
    N5755    N        0.98535    0.65926    0.49907    1.000
    Si5756   Si       0.93351    0.75376    0.56939    1.000
    N5757    N        0.95643    0.65492    0.62198    1.000
    Si5758   Si       0.96636    0.52578    0.64500    1.000
    Si5759   Si       0.96263    0.58775    0.68129    1.000
    N5760    N        0.97839    0.57311    0.71958    1.000
    N5761    N        0.94258    0.56114    0.65084    1.000
    N5762    N        0.93228    0.61997    0.68251    1.000
    N5763    N        0.96065    0.63058    0.74403    1.000
    Si5764   Si       0.94306    0.74238    0.70658    1.000
    N5765    N        0.97940    0.72612    0.69089    1.000
    N5766    N        0.93718    0.75233    0.74730    1.000
    N5767    N        0.95604    0.57829    0.79497    1.000
    Si5768   Si       0.97322    0.56733    0.83372    1.000
    N5769    N        0.94841    0.55086    0.86465    1.000
    Si5770   Si       0.97993    0.59500    0.76029    1.000
    N5771    N        0.98389    0.60704    0.85454    1.000
    Si5772   Si       0.97791    0.66499    0.76445    1.000
    N5773    N        0.94435    0.68382    0.78373    1.000
    N5774    N        0.93869    0.65617    0.84265    1.000
    Si5775   Si       0.98006    0.64668    0.83637    1.000
    Si5776   Si       0.93372    0.57580    0.89794    1.000
    N5777    N        0.97583    0.51913    0.95634    1.000
    N5778    N        0.96667    0.59300    0.92371    1.000
    Si5779   Si       0.96113    0.62845    0.94604    1.000
    N5780    N        0.94735    0.62670    0.98783    1.000
    Si5781   Si       0.98818    0.55909    0.94307    1.000
    N5782    N        0.93211    0.55844    0.99074    1.000
    N5783    N        0.97347    0.73715    0.87218    1.000
    N5784    N        0.93651    0.73797    0.92781    1.000
    N5785    N        0.95096    0.69451    0.98303    1.000
    N5786    N        0.94271    0.66106    0.92173    1.000
    Si5787   Si       0.95394    0.70059    0.93950    1.000
    N5788    N        0.94584    0.79807    0.05410    1.000
    Si5789   Si       0.93433    0.76383    0.02816    1.000
    Si5790   Si       0.98430    0.79543    0.07333    1.000
    N5791    N        0.96053    0.89143    0.01274    1.000
    N5792    N        0.94697    0.89831    0.07980    1.000
    N5793    N        0.94957    0.98253    0.00694    1.000
    N5794    N        0.97202    0.95003    0.11333    1.000
    Si5795   Si       0.98603    0.91724    0.08716    1.000
    Si5796   Si       0.98362    0.00709    0.99920    1.000
    Si5797   Si       0.95748    0.83154    0.13075    1.000
    N5798    N        0.96686    0.76924    0.20705    1.000
    Si5799   Si       0.96711    0.80481    0.23341    1.000
    Si5800   Si       0.96995    0.76877    0.16566    1.000
    N5801    N        0.97820    0.85429    0.16068    1.000
    N5802    N        0.93981    0.79439    0.14750    1.000
    N5803    N        0.98811    0.92563    0.24123    1.000
    Si5804   Si       0.94171    0.95026    0.14328    1.000
    Si5805   Si       0.96554    0.89365    0.17271    1.000
    N5806    N        0.95469    0.96372    0.18267    1.000
    N5807    N        0.93470    0.89041    0.20542    1.000
    N5808    N        0.92956    0.90673    0.14860    1.000
    N5809    N        0.97140    0.79305    0.27493    1.000
    N5810    N        0.95493    0.86801    0.27102    1.000
    N5811    N        0.97814    0.83454    0.32996    1.000
    Si5812   Si       0.94910    0.80735    0.30852    1.000
    N5813    N        0.94302    0.77633    0.33924    1.000
    Si5814   Si       0.98213    0.86894    0.30519    1.000
    N5815    N        0.95818    0.98298    0.26767    1.000
    N5816    N        0.97596    0.90329    0.33113    1.000
    Si5817   Si       0.93867    0.90811    0.35211    1.000
    N5818    N        0.93325    0.94761    0.36984    1.000
    Si5819   Si       0.95162    0.90197    0.24394    1.000
    N5820    N        0.95450    0.81285    0.39578    1.000
    Si5821   Si       0.96927    0.87022    0.41469    1.000
    N5822    N        0.97049    0.84444    0.44916    1.000
    Si5823   Si       0.96030    0.80397    0.43901    1.000
    N5824    N        0.93879    0.88141    0.38617    1.000
    Si5825   Si       0.95576    0.92616    0.46585    1.000
    Si5826   Si       0.94363    0.97301    0.40428    1.000
    N5827    N        0.93730    0.96121    0.44487    1.000
    N5828    N        0.97309    0.00545    0.39976    1.000
    N5829    N        0.96923    0.00441    0.48139    1.000
    N5830    N        0.97823    0.90986    0.43155    1.000
    Si5831   Si       0.95638    0.85094    0.60634    1.000
    Si5832   Si       0.93601    0.80496    0.50476    1.000
    N5833    N        0.97699    0.75667    0.56757    1.000
    N5834    N        0.98003    0.80130    0.50109    1.000
    N5835    N        0.96922    0.99742    0.54474    1.000
    N5836    N        0.94261    0.95126    0.58782    1.000
    Si5837   Si       0.97683    0.92388    0.59126    1.000
    Si5838   Si       0.93302    0.97384    0.55168    1.000
    N5839    N        0.96450    0.89086    0.61806    1.000
    N5840    N        0.98612    0.89590    0.55942    1.000
    N5841    N        0.97193    0.00723    0.61383    1.000
    N5842    N        0.98757    0.93610    0.49377    1.000
    N5843    N        0.98417    0.76938    0.63587    1.000
    Si5844   Si       0.94459    0.78231    0.64185    1.000
    N5845    N        0.94507    0.82738    0.64268    1.000
    Si5846   Si       0.97001    0.86841    0.72312    1.000
    N5847    N        0.93468    0.84322    0.71527    1.000
    N5848    N        0.96794    0.96623    0.72180    1.000
    Si5849   Si       0.94339    0.97554    0.62484    1.000
    Si5850   Si       0.94633    0.90519    0.65460    1.000
    Si5851   Si       0.98042    0.94135    0.68891    1.000
    N5852    N        0.96517    0.89962    0.69417    1.000
    N5853    N        0.95605    0.94721    0.65320    1.000
    Si5854   Si       0.95008    0.78240    0.77496    1.000
    N5855    N        0.95378    0.87490    0.76483    1.000
    N5856    N        0.95391    0.76374    0.81311    1.000
    Si5857   Si       0.97809    0.88220    0.79951    1.000
    N5858    N        0.97847    0.79545    0.86735    1.000
    Si5859   Si       0.98743    0.76435    0.83996    1.000
    N5860    N        0.98729    0.79936    0.75919    1.000
    Si5861   Si       0.93872    0.93665    0.81997    1.000
    N5862    N        0.96512    0.90631    0.83587    1.000
    N5863    N        0.95991    0.94257    0.78256    1.000
    Si5864   Si       0.93830    0.96952    0.75512    1.000
    N5865    N        0.93866    0.97168    0.84355    1.000
    N5866    N        0.93776    0.00471    0.78183    1.000
    Si5867   Si       0.95076    0.76800    0.89630    1.000
    N5868    N        0.96147    0.80005    0.92827    1.000
    N5869    N        0.96796    0.86796    0.94643    1.000
    Si5870   Si       0.97591    0.78718    0.96698    1.000
    Si5871   Si       0.95417    0.84021    0.91448    1.000
    N5872    N        0.97569    0.85994    0.88212    1.000
    N5873    N        0.93805    0.77111    0.98528    1.000
    N5874    N        0.93635    0.93094    0.96299    1.000
    Si5875   Si       0.94435    0.88978    0.97394    1.000
    Si5876   Si       0.97799    0.90308    0.87717    1.000
    Si5877   Si       0.94608    0.97310    0.88555    1.000
    N5878    N        0.97324    0.00327    0.89612    1.000
    N5879    N        0.95010    0.92996    0.89506    1.000
