# CIF file generated by openbabel 3.1.1, see https://openbabel.org
data_I
_chemical_name_common '3.01-94.aims'
_cell_length_a 39.8949
_cell_length_b 39.8949
_cell_length_c 39.8949
_cell_angle_alpha 90
_cell_angle_beta 90
_cell_angle_gamma 90
loop_
    _atom_site_label
    _atom_site_type_symbol
    _atom_site_fract_x
    _atom_site_fract_y
    _atom_site_fract_z
    _atom_site_occupancy
    N0       N        0.05480    0.03730    0.01574    1.000
    N1       N        0.11154    0.06199    0.06303    1.000
    N2       N        0.01695    0.01191    0.11276    1.000
    Si3      Si       0.14777    0.03409    0.06174    1.000
    Si4      Si       0.20475    0.04400    0.11234    1.000
    N5       N        0.16169    0.03598    0.10321    1.000
    N6       N        0.22912    0.01215    0.09827    1.000
    N7       N        0.16889    0.06157    0.03690    1.000
    N8       N        0.23521    0.03819    0.03551    1.000
    Si9      Si       0.22502    0.00522    0.00812    1.000
    N10      N        0.08642    0.03997    0.12067    1.000
    N11      N        0.01293    0.03552    0.18075    1.000
    N12      N        0.07679    0.02367    0.20235    1.000
    Si13     Si       0.09675    0.06078    0.19285    1.000
    Si14     Si       0.03296    0.01644    0.21531    1.000
    Si15     Si       0.99057    0.01435    0.14757    1.000
    N16      N        0.03620    0.06840    0.23053    1.000
    N17      N        0.17823    0.05881    0.22241    1.000
    Si18     Si       0.12792    0.03815    0.13272    1.000
    Si19     Si       0.23668    0.02939    0.17493    1.000
    N20      N        0.20474    0.05157    0.15526    1.000
    N21      N        0.13187    0.05996    0.16874    1.000
    Si22     Si       0.21258    0.03598    0.23805    1.000
    N23      N        0.06897    0.02891    0.27263    1.000
    Si24     Si       0.01088    0.02830    0.35652    1.000
    Si25     Si       0.02738    0.02513    0.28808    1.000
    N26      N        0.04363    0.05583    0.35263    1.000
    N27      N        0.00643    0.06102    0.29604    1.000
    N28      N        0.11253    0.04209    0.35346    1.000
    N29      N        0.00597    0.01010    0.25160    1.000
    N30      N        0.14247    0.02731    0.27343    1.000
    Si31     Si       0.20236    0.03031    0.35123    1.000
    N32      N        0.23759    0.02296    0.32613    1.000
    N33      N        0.16970    0.00726    0.33389    1.000
    Si34     Si       0.03950    0.01297    0.42910    1.000
    Si35     Si       0.07975    0.05727    0.37790    1.000
    Si36     Si       0.10356    0.02752    0.44457    1.000
    N37      N        0.01477    0.03080    0.46236    1.000
    N38      N        0.07329    0.03418    0.41541    1.000
    N39      N        0.12100    0.06454    0.46682    1.000
    N40      N        0.18544    0.02651    0.48948    1.000
    N41      N        0.21922    0.03015    0.39207    1.000
    Si42     Si       0.22417    0.01943    0.47401    1.000
    N43      N        0.23863    0.05527    0.45473    1.000
    N44      N        0.13961    0.01259    0.42594    1.000
    N45      N        0.02896    0.04499    0.58034    1.000
    N46      N        0.06311    0.02658    0.52791    1.000
    Si47     Si       0.07112    0.04334    0.56688    1.000
    Si48     Si       0.02383    0.02715    0.50495    1.000
    Si49     Si       0.99708    0.05935    0.55411    1.000
    N50      N        0.09485    0.01215    0.59139    1.000
    Si51     Si       0.03050    0.02622    0.62089    1.000
    N52      N        0.20167    0.01782    0.55292    1.000
    Si53     Si       0.19042    0.06102    0.55595    1.000
    N54      N        0.13165    0.01551    0.51514    1.000
    N55      N        0.17238    0.07163    0.59251    1.000
    Si56     Si       0.14993    0.05007    0.49597    1.000
    Si57     Si       0.10510    0.02381    0.63236    1.000
    N58      N        0.99926    0.04743    0.64293    1.000
    Si59     Si       0.06150    0.04043    0.68888    1.000
    N60      N        0.06495    0.03848    0.64483    1.000
    N61      N        0.10457    0.03847    0.69856    1.000
    Si62     Si       0.11678    0.01911    0.73682    1.000
    Si63     Si       0.21470    0.03013    0.69559    1.000
    N64      N        0.21289    0.00956    0.73245    1.000
    N65      N        0.17633    0.03337    0.67519    1.000
    Si66     Si       0.13955    0.05908    0.68381    1.000
    N67      N        0.13250    0.05659    0.63836    1.000
    Si68     Si       0.18152    0.04467    0.63006    1.000
    N69      N        0.00502    0.04011    0.81303    1.000
    N70      N        0.11097    0.01613    0.81945    1.000
    Si71     Si       0.11668    0.05345    0.80300    1.000
    N72      N        0.12104    0.05395    0.76048    1.000
    Si73     Si       0.18469    0.04876    0.79648    1.000
    Si74     Si       0.17609    0.04868    0.85796    1.000
    N75      N        0.21206    0.04615    0.83102    1.000
    N76      N        0.16894    0.00766    0.78887    1.000
    N77      N        0.15401    0.06846    0.82489    1.000
    Si78     Si       0.10875    0.04439    0.93659    1.000
    N79      N        0.08908    0.01745    0.96227    1.000
    N80      N        0.07891    0.05610    0.90730    1.000
    Si81     Si       0.04944    0.02639    0.97314    1.000
    Si82     Si       0.03539    0.05021    0.90833    1.000
    N83      N        0.02663    0.05622    0.95069    1.000
    N84      N        0.15119    0.03312    0.93549    1.000
    N85      N        0.09842    0.09215    0.01016    1.000
    N86      N        0.02510    0.09766    0.00762    1.000
    Si87     Si       0.00317    0.07595    0.08207    1.000
    Si88     Si       0.05857    0.07945    0.02846    1.000
    N89      N        0.04589    0.07619    0.07257    1.000
    N90      N        0.09676    0.11072    0.11098    1.000
    Si91     Si       0.08422    0.07506    0.09430    1.000
    N92      N        0.22014    0.10567    0.01534    1.000
    Si93     Si       0.13444    0.09049    0.03463    1.000
    N94      N        0.21346    0.07823    0.08509    1.000
    Si95     Si       0.21082    0.07348    0.04206    1.000
    N96      N        0.15502    0.11968    0.99985    1.000
    Si97     Si       0.23728    0.11150    0.09739    1.000
    Si98     Si       0.00268    0.12458    0.14302    1.000
    N99      N        0.99363    0.08583    0.12428    1.000
    Si100    Si       0.07654    0.12228    0.14964    1.000
    N101     N        0.00714    0.11519    0.18482    1.000
    N102     N        0.06631    0.08533    0.17184    1.000
    N103     N        0.10788    0.07780    0.23241    1.000
    Si104    Si       0.02688    0.07663    0.18844    1.000
    Si105    Si       0.11087    0.12381    0.22375    1.000
    N106     N        0.18136    0.11518    0.17285    1.000
    Si107    Si       0.17407    0.07195    0.17789    1.000
    Si108    Si       0.04855    0.08951    0.32689    1.000
    N109     N        0.06186    0.09756    0.28419    1.000
    N110     N        0.08719    0.10273    0.34153    1.000
    Si111    Si       0.00287    0.08257    0.25746    1.000
    N112     N        0.01848    0.11767    0.33979    1.000
    Si113    Si       0.07116    0.06843    0.25503    1.000
    N114     N        0.00755    0.12496    0.25708    1.000
    Si115    Si       0.23157    0.10883    0.25990    1.000
    N116     N        0.14414    0.08930    0.29460    1.000
    Si117    Si       0.12724    0.07956    0.33418    1.000
    N118     N        0.14564    0.10479    0.36457    1.000
    Si119    Si       0.18932    0.10778    0.36743    1.000
    N120     N        0.20383    0.07421    0.34245    1.000
    N121     N        0.21977    0.06935    0.27456    1.000
    Si122    Si       0.23401    0.06634    0.31472    1.000
    Si123    Si       0.14528    0.06583    0.25376    1.000
    Si124    Si       0.04292    0.10923    0.42513    1.000
    N125     N        0.00356    0.09073    0.43004    1.000
    Si126    Si       0.10524    0.10543    0.46354    1.000
    N127     N        0.06184    0.10867    0.46424    1.000
    Si128    Si       0.10532    0.12015    0.37930    1.000
    N129     N        0.07724    0.09701    0.40286    1.000
    Si130    Si       0.03175    0.10708    0.49576    1.000
    Si131    Si       0.17437    0.12284    0.44025    1.000
    N132     N        0.18772    0.12008    0.47969    1.000
    N133     N        0.19814    0.09991    0.41029    1.000
    N134     N        0.12992    0.12629    0.43424    1.000
    Si135    Si       0.22979    0.06791    0.41417    1.000
    N136     N        0.09206    0.08074    0.58315    1.000
    Si137    Si       0.07527    0.12094    0.58853    1.000
    N138     N        0.02066    0.07212    0.51616    1.000
    N139     N        0.23332    0.07097    0.56142    1.000
    Si140    Si       0.12980    0.08039    0.60397    1.000
    N141     N        0.16592    0.07881    0.52650    1.000
    Si142    Si       0.15824    0.12061    0.51158    1.000
    N143     N        0.14098    0.12140    0.61296    1.000
    Si144    Si       0.18338    0.10972    0.61614    1.000
    N145     N        0.11641    0.12440    0.50075    1.000
    N146     N        0.03314    0.07003    0.70185    1.000
    N147     N        0.00411    0.12052    0.65172    1.000
    Si148    Si       0.00219    0.08026    0.67456    1.000
    N149     N        0.08724    0.10931    0.72554    1.000
    Si150    Si       0.04608    0.10031    0.73350    1.000
    N151     N        0.22146    0.06578    0.63109    1.000
    Si152    Si       0.12263    0.09396    0.74142    1.000
    N153     N        0.23080    0.07090    0.70139    1.000
    Si154    Si       0.22505    0.09058    0.66558    1.000
    N155     N        0.18920    0.11296    0.66017    1.000
    N156     N        0.14991    0.09340    0.70764    1.000
    Si157    Si       0.06341    0.11232    0.80364    1.000
    N158     N        0.09762    0.08864    0.81403    1.000
    N159     N        0.03905    0.09162    0.77563    1.000
    Si160    Si       0.99943    0.07525    0.78334    1.000
    N161     N        0.03834    0.12370    0.83971    1.000
    N162     N        0.19503    0.07700    0.76816    1.000
    Si163    Si       0.13073    0.10488    0.83457    1.000
    Si164    Si       0.18466    0.11718    0.75933    1.000
    Si165    Si       0.99885    0.07608    0.97942    1.000
    Si166    Si       0.09218    0.09864    0.90698    1.000
    Si167    Si       0.02447    0.11742    0.88158    1.000
    N168     N        0.01324    0.07341    0.87790    1.000
    N169     N        0.05855    0.12453    0.91161    1.000
    Si170    Si       0.11744    0.11431    0.97720    1.000
    Si171    Si       0.16101    0.07357    0.92892    1.000
    N172     N        0.11830    0.11090    0.87725    1.000
    N173     N        0.11967    0.08763    0.94231    1.000
    N174     N        0.19313    0.09420    0.94694    1.000
    Si175    Si       0.19428    0.11825    0.98163    1.000
    N176     N        0.18180    0.07580    0.89114    1.000
    Si177    Si       0.21668    0.09826    0.91028    1.000
    N178     N        0.04138    0.14748    0.05772    1.000
    Si179    Si       0.04975    0.16554    0.09558    1.000
    Si180    Si       0.00971    0.13100    0.03326    1.000
    N181     N        0.09091    0.17900    0.09862    1.000
    Si182    Si       0.12053    0.14659    0.09696    1.000
    N183     N        0.20079    0.16134    0.04369    1.000
    Si184    Si       0.15953    0.15082    0.03024    1.000
    N185     N        0.20985    0.14244    0.10692    1.000
    N186     N        0.13884    0.12697    0.06118    1.000
    Si187    Si       0.20092    0.18357    0.08548    1.000
    N188     N        0.13255    0.18218    0.02157    1.000
    Si189    Si       0.99746    0.14443    0.21916    1.000
    N190     N        0.04152    0.14087    0.13127    1.000
    N191     N        0.10614    0.13368    0.18056    1.000
    N192     N        0.07461    0.14508    0.23886    1.000
    N193     N        0.02036    0.18247    0.21873    1.000
    N194     N        0.22267    0.12875    0.22158    1.000
    Si195    Si       0.18954    0.15189    0.14477    1.000
    N196     N        0.15004    0.12838    0.24210    1.000
    Si197    Si       0.12761    0.17096    0.16701    1.000
    N198     N        0.14735    0.15376    0.12945    1.000
    N199     N        0.16948    0.17378    0.19095    1.000
    Si200    Si       0.18212    0.13727    0.20959    1.000
    N201     N        0.04144    0.17034    0.29778    1.000
    Si202    Si       0.02124    0.16009    0.33318    1.000
    Si203    Si       0.04795    0.13790    0.27238    1.000
    N204     N        0.20384    0.14784    0.35712    1.000
    N205     N        0.15966    0.16428    0.30760    1.000
    Si206    Si       0.20565    0.16475    0.31624    1.000
    N207     N        0.20740    0.13105    0.28691    1.000
    Si208    Si       0.16302    0.12667    0.28337    1.000
    N209     N        0.02239    0.14858    0.42368    1.000
    N210     N        0.10777    0.16337    0.38565    1.000
    N211     N        0.99247    0.12322    0.48359    1.000
    Si212    Si       0.13272    0.16956    0.41966    1.000
    N213     N        0.18028    0.16516    0.42638    1.000
    Si214    Si       0.22804    0.13726    0.48654    1.000
    Si215    Si       0.21075    0.17074    0.39428    1.000
    N216     N        0.22781    0.18049    0.47928    1.000
    Si217    Si       0.08672    0.14696    0.52356    1.000
    N218     N        0.09969    0.14578    0.56444    1.000
    Si219    Si       0.01106    0.13639    0.55320    1.000
    N220     N        0.03280    0.13604    0.59072    1.000
    N221     N        0.04608    0.13249    0.52746    1.000
    N222     N        0.98797    0.17352    0.54253    1.000
    N223     N        0.08602    0.18863    0.51021    1.000
    N224     N        0.16744    0.14377    0.54793    1.000
    Si225    Si       0.20836    0.15021    0.56178    1.000
    Si226    Si       0.13811    0.16298    0.57369    1.000
    N227     N        0.21662    0.13522    0.60091    1.000
    N228     N        0.23139    0.13148    0.52990    1.000
    N229     N        0.12946    0.18157    0.61200    1.000
    N230     N        0.03484    0.18092    0.66068    1.000
    Si231    Si       0.03504    0.14511    0.63374    1.000
    Si232    Si       0.03011    0.17070    0.70223    1.000
    N233     N        0.02082    0.13199    0.71820    1.000
    N234     N        0.07719    0.13362    0.63118    1.000
    N235     N        0.13960    0.15849    0.67574    1.000
    N236     N        0.19339    0.14383    0.72569    1.000
    Si237    Si       0.11882    0.14741    0.63774    1.000
    Si238    Si       0.16683    0.13009    0.69214    1.000
    N239     N        0.08202    0.14889    0.79273    1.000
    Si240    Si       0.00564    0.14214    0.81656    1.000
    N241     N        0.01683    0.16417    0.78102    1.000
    Si242    Si       0.05999    0.18235    0.77675    1.000
    N243     N        0.09404    0.17573    0.86727    1.000
    N244     N        0.99183    0.17824    0.83809    1.000
    Si245    Si       0.12472    0.16168    0.78769    1.000
    N246     N        0.20322    0.14565    0.78734    1.000
    N247     N        0.14531    0.14789    0.83304    1.000
    Si248    Si       0.18251    0.16767    0.81793    1.000
    N249     N        0.21373    0.17890    0.84770    1.000
    Si250    Si       0.19365    0.17956    0.75457    1.000
    N251     N        0.14136    0.12646    0.76808    1.000
    Si252    Si       0.06314    0.15562    0.94213    1.000
    N253     N        0.02631    0.16212    0.96406    1.000
    N254     N        0.09810    0.15125    0.96802    1.000
    N255     N        0.99428    0.14200    0.90115    1.000
    Si256    Si       0.99243    0.14412    0.94325    1.000
    Si257    Si       0.12990    0.15279    0.87391    1.000
    Si258    Si       0.19476    0.16567    0.92715    1.000
    N259     N        0.20603    0.16000    0.96791    1.000
    N260     N        0.15341    0.16628    0.90737    1.000
    N261     N        0.22292    0.14073    0.90227    1.000
    N262     N        0.03321    0.20676    0.09589    1.000
    Si263    Si       0.07641    0.22199    0.09559    1.000
    N264     N        0.09539    0.23336    0.05813    1.000
    Si265    Si       0.99215    0.21932    0.10510    1.000
    Si266    Si       0.13455    0.21291    0.05307    1.000
    N267     N        0.16200    0.20127    0.08379    1.000
    N268     N        0.22746    0.21798    0.07395    1.000
    N269     N        0.22391    0.23020    0.00310    1.000
    Si270    Si       0.20499    0.23911    0.04171    1.000
    N271     N        0.16097    0.24300    0.03356    1.000
    N272     N        0.09206    0.19404    0.18650    1.000
    Si273    Si       0.10226    0.23438    0.16932    1.000
    Si274    Si       0.99564    0.21452    0.23427    1.000
    Si275    Si       0.06553    0.18268    0.21838    1.000
    N276     N        0.18466    0.22286    0.23300    1.000
    N277     N        0.14011    0.21425    0.15391    1.000
    Si278    Si       0.16267    0.21729    0.19696    1.000
    N279     N        0.20297    0.19783    0.13441    1.000
    Si280    Si       0.16791    0.22407    0.12245    1.000
    Si281    Si       0.22547    0.23744    0.21672    1.000
    Si282    Si       0.06841    0.20347    0.29078    1.000
    N283     N        0.09870    0.19237    0.32182    1.000
    Si284    Si       0.08538    0.19046    0.36206    1.000
    N285     N        0.05238    0.23567    0.31683    1.000
    Si286    Si       0.01630    0.22499    0.36435    1.000
    N287     N        0.07856    0.21328    0.24852    1.000
    N288     N        0.03819    0.18630    0.36575    1.000
    N289     N        0.01311    0.24289    0.26183    1.000
    N290     N        0.15403    0.22068    0.35242    1.000
    N291     N        0.20172    0.20990    0.30710    1.000
    Si292    Si       0.19549    0.22811    0.34665    1.000
    Si293    Si       0.14111    0.20139    0.31429    1.000
    N294     N        0.14078    0.23723    0.28680    1.000
    Si295    Si       0.18356    0.23563    0.27394    1.000
    Si296    Si       0.02440    0.18837    0.40851    1.000
    N297     N        0.99173    0.21771    0.40163    1.000
    N298     N        0.99702    0.21750    0.47606    1.000
    Si299    Si       0.09074    0.22983    0.42290    1.000
    N300     N        0.05177    0.21355    0.43102    1.000
    N301     N        0.09411    0.23139    0.37903    1.000
    Si302    Si       0.03266    0.23995    0.45949    1.000
    N303     N        0.06305    0.24675    0.49044    1.000
    N304     N        0.21001    0.21407    0.38555    1.000
    N305     N        0.16137    0.18626    0.49260    1.000
    Si306    Si       0.21510    0.23906    0.42063    1.000
    N307     N        0.11660    0.20017    0.44384    1.000
    Si308    Si       0.11954    0.20454    0.48696    1.000
    N309     N        0.18423    0.23209    0.44927    1.000
    Si310    Si       0.18827    0.19029    0.46106    1.000
    Si311    Si       0.06511    0.22346    0.52718    1.000
    N312     N        0.04370    0.23045    0.60943    1.000
    N313     N        0.02569    0.22635    0.54291    1.000
    Si314    Si       0.99424    0.21057    0.51930    1.000
    Si315    Si       0.01225    0.24145    0.58198    1.000
    N316     N        0.08902    0.23969    0.55892    1.000
    N317     N        0.21293    0.19258    0.56003    1.000
    N318     N        0.14269    0.20299    0.55201    1.000
    Si319    Si       0.21599    0.22719    0.58778    1.000
    Si320    Si       0.18088    0.20061    0.53104    1.000
    N321     N        0.17496    0.23719    0.59525    1.000
    N322     N        0.19155    0.24027    0.51684    1.000
    Si323    Si       0.02946    0.22315    0.64968    1.000
    Si324    Si       0.08714    0.21884    0.73272    1.000
    N325     N        0.11134    0.22156    0.69857    1.000
    N326     N        0.10871    0.24123    0.62991    1.000
    N327     N        0.99333    0.19322    0.71349    1.000
    N328     N        0.05622    0.19042    0.73092    1.000
    N329     N        0.17532    0.20732    0.72430    1.000
    Si330    Si       0.14489    0.22020    0.62250    1.000
    Si331    Si       0.14809    0.19948    0.69084    1.000
    N332     N        0.23431    0.22607    0.62846    1.000
    N333     N        0.16918    0.21919    0.65874    1.000
    Si334    Si       0.20758    0.23468    0.73035    1.000
    N335     N        0.04629    0.21461    0.80268    1.000
    Si336    Si       0.00355    0.20928    0.81064    1.000
    N337     N        0.10429    0.20105    0.77039    1.000
    N338     N        0.99281    0.24211    0.83644    1.000
    Si339    Si       0.07124    0.24043    0.82713    1.000
    N340     N        0.05513    0.23433    0.86642    1.000
    N341     N        0.11376    0.23394    0.82761    1.000
    Si342    Si       0.21887    0.22236    0.85010    1.000
    Si343    Si       0.13711    0.22579    0.79092    1.000
    N344     N        0.17700    0.23129    0.84987    1.000
    N345     N        0.16369    0.19158    0.78731    1.000
    N346     N        0.23445    0.23437    0.81149    1.000
    N347     N        0.23069    0.20563    0.75180    1.000
    N348     N        0.06577    0.19639    0.92653    1.000
    Si349    Si       0.08365    0.21095    0.88951    1.000
    N350     N        0.01425    0.22872    0.97634    1.000
    Si351    Si       0.05352    0.22348    0.95737    1.000
    N352     N        0.07803    0.21604    0.99459    1.000
    Si353    Si       0.11013    0.18935    0.98465    1.000
    Si354    Si       0.01145    0.23967    0.87566    1.000
    Si355    Si       0.99836    0.18846    0.98529    1.000
    N356     N        0.98789    0.21593    0.90295    1.000
    N357     N        0.12338    0.23144    0.89380    1.000
    Si358    Si       0.23477    0.19064    0.98345    1.000
    N359     N        0.13089    0.21689    0.95809    1.000
    N360     N        0.19410    0.21082    0.92412    1.000
    Si361    Si       0.15078    0.20906    0.91971    1.000
    Si362    Si       0.23047    0.23267    0.92381    1.000
    N363     N        0.23627    0.24287    0.88254    1.000
    N364     N        0.04077    0.27514    0.02135    1.000
    Si365    Si       0.07774    0.25003    0.02130    1.000
    N366     N        0.10848    0.27318    0.99873    1.000
    N367     N        0.21284    0.28088    0.05754    1.000
    Si368    Si       0.15020    0.28191    0.01643    1.000
    N369     N        0.17909    0.26451    0.11391    1.000
    Si370    Si       0.17977    0.29583    0.08229    1.000
    N371     N        0.14329    0.30069    0.05929    1.000
    Si372    Si       0.09042    0.25069    0.23170    1.000
    N373     N        0.00716    0.26583    0.14466    1.000
    N374     N        0.07089    0.26464    0.19108    1.000
    Si375    Si       0.04989    0.26827    0.15198    1.000
    N376     N        0.07968    0.24398    0.13192    1.000
    N377     N        0.12916    0.24538    0.20844    1.000
    N378     N        0.18799    0.25443    0.18133    1.000
    Si379    Si       0.15636    0.28109    0.19944    1.000
    Si380    Si       0.20776    0.27172    0.14630    1.000
    N381     N        0.08419    0.27904    0.26431    1.000
    Si382    Si       0.07167    0.25811    0.34968    1.000
    Si383    Si       0.01498    0.25249    0.30342    1.000
    N384     N        0.01559    0.29555    0.30456    1.000
    N385     N        0.10914    0.27573    0.33615    1.000
    Si386    Si       0.11668    0.27495    0.29204    1.000
    Si387    Si       0.22942    0.28150    0.31018    1.000
    N388     N        0.20135    0.27578    0.27762    1.000
    N389     N        0.20366    0.27025    0.34355    1.000
    Si390    Si       0.13089    0.25393    0.36643    1.000
    N391     N        0.03459    0.26464    0.37351    1.000
    N392     N        0.02904    0.27998    0.44412    1.000
    Si393    Si       0.09812    0.27284    0.48353    1.000
    N394     N        0.10209    0.26918    0.43969    1.000
    Si395    Si       0.01572    0.28739    0.40363    1.000
    Si396    Si       0.16913    0.25668    0.48271    1.000
    N397     N        0.22944    0.27983    0.40487    1.000
    N398     N        0.22197    0.29389    0.49191    1.000
    N399     N        0.15410    0.27812    0.39284    1.000
    N400     N        0.16122    0.29360    0.46357    1.000
    Si401    Si       0.13361    0.29621    0.42987    1.000
    Si402    Si       0.19470    0.29082    0.37962    1.000
    N403     N        0.00343    0.28334    0.58863    1.000
    N404     N        0.07641    0.29402    0.59894    1.000
    Si405    Si       0.07989    0.24927    0.59886    1.000
    N406     N        0.14062    0.28168    0.56553    1.000
    Si407    Si       0.18160    0.28207    0.58678    1.000
    N408     N        0.22288    0.26750    0.56655    1.000
    Si409    Si       0.22750    0.26261    0.52194    1.000
    N410     N        0.12934    0.24612    0.49946    1.000
    Si411    Si       0.13214    0.24457    0.54511    1.000
    Si412    Si       0.09936    0.25208    0.67203    1.000
    Si413    Si       0.03902    0.26747    0.71169    1.000
    N414     N        0.99685    0.25954    0.71780    1.000
    N415     N        0.06954    0.25661    0.74293    1.000
    N416     N        0.05455    0.25199    0.67358    1.000
    N417     N        0.11708    0.28997    0.68065    1.000
    N418     N        0.21856    0.25340    0.69274    1.000
    N419     N        0.19138    0.28465    0.63023    1.000
    Si420    Si       0.23864    0.29201    0.70296    1.000
    Si421    Si       0.20268    0.24691    0.65164    1.000
    N422     N        0.07627    0.28177    0.81097    1.000
    Si423    Si       0.09207    0.27964    0.77042    1.000
    N424     N        0.18828    0.29426    0.80983    1.000
    N425     N        0.13395    0.26540    0.77407    1.000
    Si426    Si       0.22257    0.27355    0.79629    1.000
    Si427    Si       0.16844    0.29333    0.77096    1.000
    N428     N        0.20293    0.26970    0.75636    1.000
    Si429    Si       0.14051    0.25119    0.85831    1.000
    N430     N        0.14671    0.29472    0.86756    1.000
    Si431    Si       0.05585    0.28620    0.90732    1.000
    N432     N        0.07022    0.26190    0.94012    1.000
    N433     N        0.01382    0.28067    0.89187    1.000
    Si434    Si       0.11201    0.25716    0.95551    1.000
    Si435    Si       0.00974    0.26731    0.99322    1.000
    N436     N        0.13700    0.28827    0.93738    1.000
    N437     N        0.23520    0.27199    0.94390    1.000
    Si438    Si       0.22629    0.27112    0.98623    1.000
    N439     N        0.18431    0.28371    0.98844    1.000
    N440     N        0.02309    0.34697    0.03563    1.000
    N441     N        0.08745    0.34862    0.10082    1.000
    N442     N        0.08303    0.31970    0.04150    1.000
    Si443    Si       0.04838    0.33584    0.11608    1.000
    Si444    Si       0.04111    0.30885    0.04882    1.000
    Si445    Si       0.09926    0.31587    0.00143    1.000
    N446     N        0.02895    0.30535    0.09030    1.000
    Si447    Si       0.04011    0.36258    0.99954    1.000
    Si448    Si       0.11321    0.33166    0.07077    1.000
    N449     N        0.18492    0.33618    0.09855    1.000
    N450     N        0.14161    0.32602    0.99735    1.000
    N451     N        0.06916    0.34572    0.20316    1.000
    Si452    Si       0.03440    0.34531    0.23072    1.000
    Si453    Si       0.08383    0.30872    0.18352    1.000
    N454     N        0.05771    0.31036    0.14889    1.000
    N455     N        0.02082    0.30383    0.23323    1.000
    N456     N        0.17686    0.31035    0.22405    1.000
    Si457    Si       0.19562    0.33466    0.19520    1.000
    Si458    Si       0.20419    0.35706    0.13383    1.000
    N459     N        0.23430    0.34623    0.20784    1.000
    N460     N        0.20959    0.31437    0.15748    1.000
    N461     N        0.12828    0.30523    0.17782    1.000
    N462     N        0.05064    0.34316    0.27074    1.000
    Si463    Si       0.04533    0.29911    0.26864    1.000
    N464     N        0.20168    0.34612    0.28267    1.000
    Si465    Si       0.18068    0.31116    0.26702    1.000
    N466     N        0.14023    0.31022    0.28384    1.000
    Si467    Si       0.13156    0.35440    0.29601    1.000
    N468     N        0.07984    0.31064    0.49010    1.000
    N469     N        0.02006    0.32869    0.39058    1.000
    Si470    Si       0.04310    0.31819    0.46474    1.000
    N471     N        0.05600    0.34896    0.43715    1.000
    N472     N        0.01038    0.33133    0.49143    1.000
    Si473    Si       0.23203    0.32744    0.40764    1.000
    N474     N        0.20539    0.34373    0.44081    1.000
    Si475    Si       0.19283    0.32207    0.47876    1.000
    N476     N        0.13369    0.34002    0.42192    1.000
    N477     N        0.19829    0.33220    0.38069    1.000
    Si478    Si       0.17409    0.35540    0.41320    1.000
    Si479    Si       0.07494    0.33569    0.52458    1.000
    N480     N        0.04092    0.32582    0.54849    1.000
    Si481    Si       0.03835    0.30977    0.58777    1.000
    N482     N        0.02915    0.34469    0.61630    1.000
    N483     N        0.10572    0.34101    0.55528    1.000
    Si484    Si       0.01822    0.35853    0.52540    1.000
    Si485    Si       0.11433    0.31119    0.58689    1.000
    N486     N        0.18320    0.34599    0.51185    1.000
    N487     N        0.18594    0.32590    0.57832    1.000
    Si488    Si       0.20759    0.34661    0.54618    1.000
    Si489    Si       0.16643    0.35125    0.60725    1.000
    N490     N        0.04180    0.31167    0.71372    1.000
    Si491    Si       0.04032    0.34570    0.68788    1.000
    N492     N        0.07650    0.34595    0.66462    1.000
    Si493    Si       0.99435    0.35630    0.63650    1.000
    N494     N        0.99892    0.35420    0.67938    1.000
    Si495    Si       0.11738    0.32956    0.66420    1.000
    N496     N        0.14238    0.35746    0.68959    1.000
    N497     N        0.19630    0.35680    0.63896    1.000
    N498     N        0.13281    0.32953    0.62273    1.000
    N499     N        0.20667    0.31754    0.68783    1.000
    Si500    Si       0.17958    0.34327    0.70974    1.000
    Si501    Si       0.21528    0.31897    0.64472    1.000
    N502     N        0.02951    0.34114    0.78149    1.000
    N503     N        0.01975    0.33682    0.85601    1.000
    N504     N        0.09196    0.32105    0.75785    1.000
    Si505    Si       0.09417    0.31491    0.83413    1.000
    N506     N        0.07568    0.35408    0.83458    1.000
    Si507    Si       0.03354    0.36020    0.81994    1.000
    Si508    Si       0.05463    0.33704    0.74556    1.000
    Si509    Si       0.99108    0.32518    0.77986    1.000
    Si510    Si       0.16688    0.32053    0.83711    1.000
    N511     N        0.13082    0.32959    0.81306    1.000
    Si512    Si       0.12624    0.34171    0.76963    1.000
    N513     N        0.19141    0.35355    0.85432    1.000
    Si514    Si       0.23396    0.35253    0.86655    1.000
    N515     N        0.16296    0.32912    0.74856    1.000
    N516     N        0.04612    0.32665    0.92249    1.000
    Si517    Si       0.05849    0.34425    0.87715    1.000
    N518     N        0.07371    0.34264    0.98020    1.000
    Si519    Si       0.00854    0.33335    0.94304    1.000
    N520     N        0.08353    0.30727    0.87708    1.000
    Si521    Si       0.07363    0.35687    0.93832    1.000
    Si522    Si       0.98896    0.31668    0.87855    1.000
    N523     N        0.11194    0.34618    0.92206    1.000
    N524     N        0.99791    0.30154    0.97081    1.000
    Si525    Si       0.23379    0.31259    0.92929    1.000
    Si526    Si       0.16506    0.31149    0.96222    1.000
    N527     N        0.19604    0.33154    0.93959    1.000
    Si528    Si       0.12071    0.30913    0.90107    1.000
    N529     N        0.99769    0.40976    0.06083    1.000
    N530     N        0.02282    0.36948    0.10781    1.000
    N531     N        0.04864    0.40554    0.00716    1.000
    Si532    Si       0.00148    0.36805    0.06960    1.000
    Si533    Si       0.09447    0.38960    0.11678    1.000
    N534     N        0.08320    0.41558    0.08462    1.000
    Si535    Si       0.21604    0.40026    0.01048    1.000
    N536     N        0.19604    0.37053    0.03446    1.000
    Si537    Si       0.17772    0.37735    0.07455    1.000
    N538     N        0.19979    0.39568    0.11135    1.000
    Si539    Si       0.15664    0.36125    0.01634    1.000
    N540     N        0.13499    0.36826    0.05735    1.000
    Si541    Si       0.01183    0.41272    0.20919    1.000
    N542     N        0.00069    0.37258    0.22120    1.000
    N543     N        0.06894    0.39415    0.15071    1.000
    Si544    Si       0.03012    0.40510    0.13280    1.000
    Si545    Si       0.08007    0.38754    0.19429    1.000
    N546     N        0.00438    0.40857    0.16608    1.000
    N547     N        0.05430    0.41196    0.22021    1.000
    Si548    Si       0.13228    0.41636    0.24513    1.000
    N549     N        0.12179    0.39824    0.20492    1.000
    N550     N        0.13310    0.39800    0.13393    1.000
    Si551    Si       0.15100    0.39568    0.17283    1.000
    N552     N        0.18276    0.36742    0.17141    1.000
    N553     N        0.21212    0.40306    0.24614    1.000
    Si554    Si       0.05280    0.37362    0.30318    1.000
    N555     N        0.02871    0.36710    0.33837    1.000
    N556     N        0.09499    0.37146    0.31351    1.000
    N557     N        0.04010    0.41595    0.29079    1.000
    Si558    Si       0.11315    0.38521    0.34893    1.000
    Si559    Si       0.18614    0.38638    0.27625    1.000
    N560     N        0.14516    0.38075    0.26593    1.000
    N561     N        0.22839    0.37761    0.33609    1.000
    Si562    Si       0.18960    0.36666    0.35149    1.000
    N563     N        0.14996    0.36298    0.33481    1.000
    N564     N        0.18418    0.41795    0.30472    1.000
    Si565    Si       0.04503    0.36402    0.37857    1.000
    N566     N        0.10179    0.39580    0.45779    1.000
    N567     N        0.08642    0.37586    0.38226    1.000
    Si568    Si       0.09760    0.36483    0.42576    1.000
    Si569    Si       0.01819    0.37533    0.43823    1.000
    N570     N        0.01993    0.41189    0.46331    1.000
    N571     N        0.02277    0.39468    0.39969    1.000
    N572     N        0.17658    0.38967    0.38622    1.000
    N573     N        0.07846    0.39675    0.59469    1.000
    N574     N        0.01256    0.38292    0.56284    1.000
    Si575    Si       0.03712    0.38412    0.59903    1.000
    N576     N        0.05816    0.37362    0.51026    1.000
    Si577    Si       0.10958    0.38196    0.56647    1.000
    Si578    Si       0.08595    0.40460    0.49780    1.000
    N579     N        0.11589    0.40743    0.52889    1.000
    N580     N        0.14869    0.38371    0.58678    1.000
    N581     N        0.20983    0.38964    0.55427    1.000
    Si582    Si       0.17457    0.41037    0.56705    1.000
    N583     N        0.00533    0.39831    0.62865    1.000
    N584     N        0.05173    0.37176    0.71972    1.000
    Si585    Si       0.03228    0.40970    0.72990    1.000
    N586     N        0.09821    0.41237    0.66474    1.000
    N587     N        0.99116    0.39365    0.74099    1.000
    N588     N        0.16395    0.41208    0.65955    1.000
    Si589    Si       0.13249    0.40014    0.68541    1.000
    N590     N        0.23359    0.41721    0.65362    1.000
    Si591    Si       0.22452    0.39622    0.74588    1.000
    Si592    Si       0.20245    0.39146    0.66631    1.000
    N593     N        0.20793    0.37715    0.70970    1.000
    N594     N        0.00976    0.39678    0.81489    1.000
    Si595    Si       0.10367    0.38450    0.81791    1.000
    N596     N        0.11602    0.38225    0.77707    1.000
    N597     N        0.13087    0.39632    0.85175    1.000
    N598     N        0.22743    0.36724    0.77868    1.000
    Si599    Si       0.17034    0.39092    0.87016    1.000
    Si600    Si       1.00000    0.41059    0.96083    1.000
    N601     N        0.05853    0.38131    0.90002    1.000
    N602     N        0.09332    0.40053    0.94990    1.000
    N603     N        0.01272    0.36952    0.96542    1.000
    Si604    Si       0.20284    0.37333    0.93471    1.000
    N605     N        0.16513    0.38638    0.91338    1.000
    N606     N        0.22984    0.38363    0.89783    1.000
    N607     N        0.22617    0.38794    0.96971    1.000
    N608     N        0.15671    0.38477    0.97714    1.000
    Si609    Si       0.13276    0.38180    0.94144    1.000
    N610     N        0.03697    0.46179    0.05101    1.000
    Si611    Si       0.06469    0.45674    0.08689    1.000
    Si612    Si       0.01876    0.42784    0.02895    1.000
    N613     N        0.03385    0.44513    0.11578    1.000
    N614     N        0.10816    0.46669    0.06215    1.000
    Si615    Si       0.11928    0.42192    0.05729    1.000
    Si616    Si       0.18663    0.45063    0.05047    1.000
    N617     N        0.21966    0.45565    0.07964    1.000
    N618     N        0.18766    0.43444    0.01024    1.000
    N619     N        0.16043    0.42341    0.07360    1.000
    Si620    Si       0.23333    0.42295    0.10503    1.000
    N621     N        0.11977    0.42147    0.01319    1.000
    Si622    Si       0.16513    0.42341    0.11919    1.000
    N623     N        0.15122    0.46763    0.12092    1.000
    N624     N        0.99243    0.44764    0.22426    1.000
    Si625    Si       0.00897    0.47973    0.13131    1.000
    N626     N        0.05044    0.47745    0.24467    1.000
    N627     N        0.16272    0.44915    0.24124    1.000
    Si628    Si       0.16861    0.47381    0.16173    1.000
    N629     N        0.23213    0.45956    0.21104    1.000
    Si630    Si       0.20695    0.44515    0.24469    1.000
    N631     N        0.17369    0.43187    0.16682    1.000
    N632     N        0.10413    0.43566    0.26797    1.000
    Si633    Si       0.06178    0.43617    0.25737    1.000
    N634     N        0.00580    0.47057    0.31768    1.000
    Si635    Si       0.00120    0.42830    0.30792    1.000
    N636     N        0.10806    0.42918    0.34402    1.000
    N637     N        0.04825    0.44773    0.36579    1.000
    Si638    Si       0.11092    0.45329    0.30885    1.000
    N639     N        0.22689    0.47006    0.27409    1.000
    Si640    Si       0.18287    0.45558    0.32684    1.000
    N641     N        0.22599    0.45833    0.33833    1.000
    N642     N        0.17164    0.45949    0.36928    1.000
    N643     N        0.14862    0.47776    0.30721    1.000
    Si644    Si       0.09046    0.44799    0.38420    1.000
    N645     N        0.07208    0.44724    0.42874    1.000
    Si646    Si       0.04476    0.44760    0.46218    1.000
    Si647    Si       0.01193    0.43200    0.38032    1.000
    Si648    Si       0.10817    0.43651    0.44975    1.000
    N649     N        0.01355    0.47837    0.46023    1.000
    N650     N        0.07490    0.44779    0.49238    1.000
    N651     N        0.20945    0.46297    0.48752    1.000
    N652     N        0.19316    0.43390    0.43435    1.000
    Si653    Si       0.22941    0.43523    0.45766    1.000
    N654     N        0.12949    0.44139    0.40944    1.000
    Si655    Si       0.17477    0.46790    0.45554    1.000
    Si656    Si       0.17081    0.42969    0.39865    1.000
    N657     N        0.13878    0.45401    0.47487    1.000
    N658     N        0.04242    0.47491    0.55719    1.000
    Si659    Si       0.07274    0.47660    0.52566    1.000
    N660     N        0.99189    0.44226    0.52409    1.000
    N661     N        0.11337    0.47465    0.54119    1.000
    Si662    Si       0.09306    0.42698    0.62437    1.000
    N663     N        0.17475    0.43812    0.53486    1.000
    Si664    Si       0.13659    0.44688    0.51775    1.000
    N665     N        0.19627    0.43130    0.60052    1.000
    N666     N        0.12564    0.45321    0.60836    1.000
    Si667    Si       0.21496    0.42780    0.51901    1.000
    Si668    Si       0.23719    0.41715    0.58019    1.000
    N669     N        0.05517    0.45128    0.62604    1.000
    Si670    Si       0.02027    0.43606    0.65050    1.000
    N671     N        0.02356    0.43528    0.69450    1.000
    Si672    Si       0.01280    0.47515    0.71074    1.000
    N673     N        0.18604    0.47446    0.64447    1.000
    N674     N        0.13763    0.41916    0.72463    1.000
    Si675    Si       0.16267    0.44097    0.62656    1.000
    Si676    Si       0.16604    0.45046    0.73761    1.000
    Si677    Si       0.22226    0.45708    0.63252    1.000
    N678     N        0.02776    0.46451    0.81332    1.000
    Si679    Si       0.06367    0.45288    0.79467    1.000
    Si680    Si       0.99542    0.43676    0.82782    1.000
    N681     N        0.06582    0.42765    0.75872    1.000
    Si682    Si       0.10925    0.43594    0.85568    1.000
    N683     N        0.08441    0.42525    0.81999    1.000
    Si684    Si       0.11161    0.42003    0.75867    1.000
    N685     N        0.14134    0.45256    0.77471    1.000
    N686     N        0.13646    0.46505    0.84427    1.000
    Si687    Si       0.23202    0.47179    0.76075    1.000
    Si688    Si       0.17451    0.47134    0.86371    1.000
    N689     N        0.20745    0.43574    0.75073    1.000
    N690     N        0.18946    0.42934    0.87015    1.000
    Si691    Si       0.99305    0.44518    0.90765    1.000
    N692     N        0.02985    0.43950    0.93341    1.000
    N693     N        0.07986    0.46219    0.97235    1.000
    N694     N        0.08556    0.44362    0.88941    1.000
    Si695    Si       0.04162    0.47417    0.95743    1.000
    Si696    Si       0.08353    0.42184    0.98910    1.000
    Si697    Si       0.06586    0.41932    0.91865    1.000
    N698     N        0.98743    0.42946    0.99740    1.000
    Si699    Si       0.19020    0.46930    0.93478    1.000
    N700     N        0.15232    0.44983    0.95324    1.000
    Si701    Si       0.22895    0.42691    0.89023    1.000
    Si702    Si       0.15448    0.42566    0.98871    1.000
    N703     N        0.23132    0.45231    0.92597    1.000
    N704     N        0.07400    0.51831    0.02577    1.000
    Si705    Si       0.03822    0.49801    0.02664    1.000
    N706     N        0.00889    0.52795    0.03609    1.000
    N707     N        0.08311    0.49271    0.11169    1.000
    Si708    Si       0.05882    0.52905    0.11289    1.000
    N709     N        0.01636    0.51718    0.10945    1.000
    Si710    Si       0.11350    0.50338    0.03914    1.000
    Si711    Si       0.12250    0.48636    0.09797    1.000
    N712     N        0.13347    0.52366    0.07523    1.000
    N713     N        0.19037    0.49332    0.03859    1.000
    Si714    Si       0.22717    0.49434    0.06325    1.000
    N715     N        0.22861    0.52753    0.09131    1.000
    Si716    Si       0.17646    0.50680    0.00023    1.000
    N717     N        0.13269    0.49799    0.99987    1.000
    N718     N        0.01570    0.49466    0.17256    1.000
    N719     N        0.99662    0.51905    0.23654    1.000
    Si720    Si       0.01336    0.48416    0.21652    1.000
    Si721    Si       0.02097    0.53791    0.17261    1.000
    Si722    Si       0.21125    0.52577    0.13225    1.000
    N723     N        0.20810    0.48949    0.15057    1.000
    N724     N        0.14860    0.49899    0.18974    1.000
    Si725    Si       0.14984    0.49084    0.23175    1.000
    Si726    Si       0.07700    0.50371    0.26786    1.000
    N727     N        0.04324    0.51854    0.35531    1.000
    N728     N        0.07840    0.48299    0.30614    1.000
    Si729    Si       0.04458    0.48019    0.33352    1.000
    N730     N        0.11761    0.50670    0.25476    1.000
    Si731    Si       0.14716    0.51523    0.28683    1.000
    Si732    Si       0.21748    0.51230    0.27117    1.000
    N733     N        0.20830    0.52145    0.31219    1.000
    N734     N        0.17731    0.51998    0.25336    1.000
    Si735    Si       0.24008    0.50056    0.34254    1.000
    Si736    Si       0.08236    0.52782    0.37206    1.000
    N737     N        0.10305    0.49074    0.37908    1.000
    Si738    Si       0.02297    0.51415    0.48504    1.000
    N739     N        0.16777    0.50010    0.42689    1.000
    N740     N        0.22191    0.53235    0.37176    1.000
    N741     N        0.15461    0.52755    0.37412    1.000
    Si742    Si       0.18757    0.53187    0.40214    1.000
    Si743    Si       0.14489    0.48724    0.39025    1.000
    N744     N        0.20956    0.53190    0.49144    1.000
    N745     N        0.08770    0.51042    0.59343    1.000
    N746     N        0.06211    0.51350    0.50490    1.000
    Si747    Si       0.05155    0.48459    0.59795    1.000
    N748     N        0.02735    0.51436    0.61887    1.000
    N749     N        0.99392    0.51560    0.51632    1.000
    Si750    Si       0.99992    0.47983    0.54213    1.000
    N751     N        0.22767    0.50509    0.55211    1.000
    N752     N        0.16091    0.51225    0.58579    1.000
    Si753    Si       0.22801    0.49603    0.50811    1.000
    Si754    Si       0.12498    0.48881    0.58073    1.000
    Si755    Si       0.19993    0.52926    0.57358    1.000
    N756     N        0.00515    0.50721    0.68159    1.000
    N757     N        0.04513    0.49438    0.73259    1.000
    Si758    Si       0.03129    0.53173    0.65907    1.000
    Si759    Si       0.06410    0.53051    0.72189    1.000
    N760     N        0.07067    0.52708    0.67863    1.000
    Si761    Si       0.17115    0.50317    0.67457    1.000
    N762     N        0.14455    0.53169    0.65444    1.000
    N763     N        0.16436    0.48643    0.71413    1.000
    Si764    Si       0.18426    0.52203    0.73216    1.000
    N765     N        0.20508    0.52746    0.69402    1.000
    N766     N        0.01495    0.51791    0.85554    1.000
    N767     N        0.08892    0.48897    0.79665    1.000
    Si768    Si       0.01683    0.50730    0.81275    1.000
    Si769    Si       0.08225    0.53295    0.78803    1.000
    N770     N        0.03896    0.53608    0.79035    1.000
    Si771    Si       0.19496    0.52136    0.80710    1.000
    N772     N        0.20362    0.50527    0.76674    1.000
    N773     N        0.14927    0.52284    0.80477    1.000
    N774     N        0.20392    0.48895    0.83666    1.000
    Si775    Si       0.13184    0.48146    0.80410    1.000
    N776     N        0.04727    0.50681    0.92820    1.000
    Si777    Si       0.01600    0.51381    0.89933    1.000
    N778     N        0.01588    0.48808    0.98937    1.000
    Si779    Si       0.08249    0.53261    0.93103    1.000
    Si780    Si       0.14944    0.52583    0.91196    1.000
    N781     N        0.20273    0.49697    0.96675    1.000
    N782     N        0.11637    0.50569    0.93029    1.000
    N783     N        0.17796    0.49310    0.90258    1.000
    Si784    Si       0.11843    0.47841    0.96291    1.000
    N785     N        0.05033    0.58493    0.01976    1.000
    Si786    Si       0.09869    0.58135    0.07077    1.000
    Si787    Si       0.02878    0.56348    0.05419    1.000
    N788     N        0.06436    0.55539    0.07955    1.000
    Si789    Si       0.08076    0.55750    0.00926    1.000
    N790     N        0.00218    0.58117    0.08185    1.000
    N791     N        0.11546    0.57222    0.03049    1.000
    N792     N        0.12033    0.58127    0.10911    1.000
    Si793    Si       0.15858    0.57651    0.02818    1.000
    Si794    Si       0.15330    0.55449    0.09860    1.000
    N795     N        0.17557    0.57859    0.06974    1.000
    N796     N        0.18189    0.55116    0.00364    1.000
    Si797    Si       0.21768    0.57396    0.99542    1.000
    N798     N        0.03707    0.56257    0.20745    1.000
    Si799    Si       0.07083    0.57880    0.18493    1.000
    N800     N        0.05879    0.54871    0.15100    1.000
    N801     N        0.98782    0.55940    0.15381    1.000
    N802     N        0.17171    0.54220    0.13418    1.000
    N803     N        0.18586    0.56061    0.19890    1.000
    N804     N        0.14777    0.59145    0.24606    1.000
    Si805    Si       0.17964    0.56292    0.24208    1.000
    Si806    Si       0.15336    0.54201    0.17441    1.000
    N807     N        0.11867    0.56706    0.18263    1.000
    Si808    Si       0.22041    0.57933    0.18366    1.000
    N809     N        0.03667    0.58247    0.33679    1.000
    N810     N        0.09798    0.55292    0.34209    1.000
    Si811    Si       0.07250    0.56971    0.31114    1.000
    Si812    Si       0.01324    0.54950    0.35488    1.000
    N813     N        0.05625    0.54281    0.27751    1.000
    N814     N        0.99282    0.57777    0.27108    1.000
    Si815    Si       0.02335    0.55314    0.24932    1.000
    N816     N        0.21335    0.57792    0.26480    1.000
    N817     N        0.14859    0.55533    0.30386    1.000
    Si818    Si       0.14124    0.55874    0.34707    1.000
    Si819    Si       0.20757    0.55710    0.33776    1.000
    N820     N        0.17629    0.58342    0.35772    1.000
    Si821    Si       0.14003    0.59437    0.28821    1.000
    N822     N        0.23225    0.59085    0.32490    1.000
    Si823    Si       0.06587    0.56306    0.44427    1.000
    N824     N        0.09154    0.56647    0.47795    1.000
    Si825    Si       0.01818    0.58903    0.47281    1.000
    N826     N        0.02608    0.54544    0.45465    1.000
    N827     N        0.08206    0.55091    0.40861    1.000
    N828     N        0.20645    0.56197    0.42844    1.000
    Si829    Si       0.23316    0.55120    0.46048    1.000
    N830     N        0.16943    0.58484    0.47599    1.000
    Si831    Si       0.12713    0.58727    0.48841    1.000
    N832     N        0.03381    0.57703    0.59167    1.000
    N833     N        0.08508    0.56529    0.55420    1.000
    N834     N        0.03055    0.57558    0.51377    1.000
    Si835    Si       0.06958    0.55143    0.59486    1.000
    Si836    Si       0.01749    0.59029    0.55295    1.000
    Si837    Si       0.06860    0.55417    0.51414    1.000
    N838     N        0.19543    0.56514    0.54818    1.000
    N839     N        0.14206    0.57706    0.59793    1.000
    Si840    Si       0.18179    0.55903    0.50740    1.000
    Si841    Si       0.12943    0.57607    0.55467    1.000
    N842     N        0.20592    0.54900    0.61434    1.000
    N843     N        0.13941    0.55351    0.51994    1.000
    Si844    Si       0.16247    0.54492    0.61707    1.000
    N845     N        0.09044    0.56986    0.63101    1.000
    N846     N        0.03926    0.56650    0.72510    1.000
    N847     N        0.02154    0.57360    0.65862    1.000
    Si848    Si       0.10701    0.55018    0.66503    1.000
    Si849    Si       0.02954    0.59510    0.69544    1.000
    Si850    Si       0.22975    0.58745    0.62253    1.000
    Si851    Si       0.22375    0.56585    0.69063    1.000
    N852     N        0.11924    0.58003    0.69592    1.000
    Si853    Si       0.12656    0.57075    0.73781    1.000
    N854     N        0.16849    0.56078    0.74018    1.000
    N855     N        0.22826    0.57950    0.73255    1.000
    N856     N        0.09289    0.56039    0.81976    1.000
    Si857    Si       0.00571    0.55959    0.85765    1.000
    Si858    Si       0.02543    0.57045    0.76791    1.000
    N859     N        0.03850    0.58912    0.85756    1.000
    N860     N        0.09801    0.54056    0.74971    1.000
    Si861    Si       0.06731    0.59577    0.82414    1.000
    N862     N        0.21773    0.55312    0.82599    1.000
    Si863    Si       0.13225    0.55138    0.83401    1.000
    N864     N        0.15513    0.58892    0.82992    1.000
    Si865    Si       0.19787    0.58892    0.84185    1.000
    N866     N        0.13774    0.53671    0.87218    1.000
    N867     N        0.09075    0.55775    0.96751    1.000
    Si868    Si       0.10900    0.58534    0.93612    1.000
    N869     N        0.00482    0.55529    0.90306    1.000
    N870     N        0.07812    0.56924    0.90850    1.000
    Si871    Si       0.04041    0.58597    0.90097    1.000
    Si872    Si       0.18299    0.59403    0.92650    1.000
    N873     N        0.15082    0.56594    0.93036    1.000
    N874     N        0.21803    0.58679    0.95299    1.000
    N875     N        0.01646    0.63761    0.05216    1.000
    Si876    Si       0.05346    0.62615    0.03354    1.000
    N877     N        0.08489    0.62239    0.06260    1.000
    N878     N        0.04767    0.64866    0.99691    1.000
    N879     N        0.16577    0.61790    0.01476    1.000
    N880     N        0.20334    0.64671    0.07010    1.000
    Si881    Si       0.21159    0.60361    0.07038    1.000
    N882     N        0.11921    0.64925    0.11901    1.000
    Si883    Si       0.17359    0.65313    0.03854    1.000
    N884     N        0.22951    0.59891    0.03064    1.000
    Si885    Si       0.06440    0.64319    0.22412    1.000
    N886     N        0.08735    0.60758    0.21909    1.000
    N887     N        0.07410    0.61545    0.15443    1.000
    N888     N        0.03338    0.64851    0.19405    1.000
    Si889    Si       0.04995    0.65130    0.15419    1.000
    N890     N        0.01940    0.65302    0.12577    1.000
    N891     N        0.14761    0.62437    0.17658    1.000
    Si892    Si       0.18499    0.64819    0.17088    1.000
    Si893    Si       0.12811    0.60178    0.20914    1.000
    N894     N        0.21574    0.61770    0.16345    1.000
    Si895    Si       0.11717    0.61248    0.14228    1.000
    Si896    Si       0.03489    0.62610    0.34573    1.000
    N897     N        0.00483    0.64076    0.31702    1.000
    Si898    Si       0.08330    0.64154    0.29374    1.000
    N899     N        0.05206    0.64888    0.26569    1.000
    N900     N        0.07102    0.64732    0.33466    1.000
    N901     N        0.09825    0.60229    0.29685    1.000
    N902     N        0.22459    0.64980    0.27000    1.000
    N903     N        0.16929    0.62398    0.30036    1.000
    Si904    Si       0.21173    0.61452    0.29177    1.000
    Si905    Si       0.05226    0.63796    0.41728    1.000
    N906     N        0.09403    0.64190    0.40340    1.000
    N907     N        0.02403    0.64346    0.38465    1.000
    N908     N        0.00326    0.63015    0.48609    1.000
    N909     N        0.04730    0.60283    0.44053    1.000
    Si910    Si       0.18778    0.62135    0.37889    1.000
    N911     N        0.16166    0.62184    0.41364    1.000
    N912     N        0.21366    0.63110    0.45199    1.000
    Si913    Si       0.18718    0.59822    0.43969    1.000
    N914     N        0.12051    0.62716    0.47187    1.000
    N915     N        0.23028    0.61330    0.38719    1.000
    Si916    Si       0.12751    0.64129    0.42977    1.000
    N917     N        0.02719    0.63274    0.55394    1.000
    N918     N        0.09527    0.63130    0.59177    1.000
    Si919    Si       0.05345    0.64429    0.58839    1.000
    Si920    Si       0.01364    0.65691    0.52051    1.000
    Si921    Si       0.11408    0.60471    0.61862    1.000
    Si922    Si       0.01207    0.59615    0.62271    1.000
    N923     N        0.13536    0.61713    0.53615    1.000
    N924     N        0.21986    0.62488    0.52256    1.000
    N925     N        0.20782    0.61784    0.59954    1.000
    Si926    Si       0.12471    0.64681    0.56456    1.000
    Si927    Si       0.21349    0.60294    0.55975    1.000
    Si928    Si       0.13497    0.65042    0.50533    1.000
    Si929    Si       0.17552    0.64063    0.62022    1.000
    N930     N        0.03281    0.63402    0.62617    1.000
    Si931    Si       0.99384    0.65155    0.71384    1.000
    N932     N        0.05346    0.63260    0.69052    1.000
    N933     N        0.11208    0.65292    0.70881    1.000
    N934     N        0.02750    0.65523    0.74263    1.000
    N935     N        0.22147    0.59815    0.66494    1.000
    N936     N        0.17712    0.62298    0.70868    1.000
    Si937    Si       0.13732    0.62060    0.69068    1.000
    N938     N        0.14186    0.62216    0.64711    1.000
    Si939    Si       0.20978    0.63712    0.68217    1.000
    Si940    Si       0.18873    0.59870    0.74414    1.000
    N941     N        0.08342    0.63472    0.83012    1.000
    N942     N        0.04452    0.60437    0.78856    1.000
    Si943    Si       0.04592    0.64709    0.78034    1.000
    N944     N        0.19158    0.62129    0.77957    1.000
    Si945    Si       0.15005    0.61817    0.80015    1.000
    N946     N        0.21881    0.62753    0.83656    1.000
    Si947    Si       0.22458    0.64470    0.79595    1.000
    N948     N        0.12663    0.60164    0.76748    1.000
    Si949    Si       0.98827    0.63252    0.93195    1.000
    N950     N        0.02954    0.61701    0.92948    1.000
    N951     N        0.09833    0.62794    0.94375    1.000
    Si952    Si       0.05839    0.63933    0.95431    1.000
    N953     N        0.16625    0.63380    0.93209    1.000
    Si954    Si       0.21633    0.63772    0.87836    1.000
    N955     N        0.19774    0.59660    0.88565    1.000
    Si956    Si       0.12570    0.65605    0.92612    1.000
    N957     N        0.06798    0.68333    0.08500    1.000
    N958     N        0.01847    0.70197    0.01173    1.000
    Si959    Si       0.02755    0.66777    0.08577    1.000
    N960     N        0.00097    0.70140    0.08404    1.000
    Si961    Si       0.00461    0.66106    0.01248    1.000
    N962     N        0.09709    0.70243    0.00659    1.000
    Si963    Si       0.07817    0.70951    0.11797    1.000
    Si964    Si       0.10319    0.65882    0.08019    1.000
    N965     N        0.13583    0.66933    0.05353    1.000
    Si966    Si       0.21270    0.67366    0.10428    1.000
    Si967    Si       0.14041    0.69690    0.01932    1.000
    N968     N        0.18014    0.68398    0.00748    1.000
    N969     N        0.22000    0.71452    0.08972    1.000
    Si970    Si       0.21830    0.69845    0.99525    1.000
    N971     N        0.08914    0.68055    0.21966    1.000
    N972     N        0.07296    0.68955    0.15394    1.000
    Si973    Si       0.09946    0.70518    0.18559    1.000
    N974     N        0.01766    0.71268    0.21893    1.000
    N975     N        0.14399    0.71601    0.23615    1.000
    N976     N        0.14077    0.69726    0.17420    1.000
    N977     N        0.18307    0.67335    0.13526    1.000
    Si978    Si       0.16987    0.70634    0.20287    1.000
    Si979    Si       0.14013    0.68278    0.13261    1.000
    N980     N        0.19655    0.67383    0.20412    1.000
    Si981    Si       0.22927    0.67608    0.23539    1.000
    N982     N        0.00601    0.69903    0.28587    1.000
    Si983    Si       0.10705    0.70052    0.25460    1.000
    Si984    Si       0.09570    0.66676    0.36474    1.000
    N985     N        0.11510    0.66943    0.28398    1.000
    Si986    Si       0.01059    0.65716    0.27681    1.000
    N987     N        0.18085    0.69318    0.31146    1.000
    Si988    Si       0.21834    0.68461    0.29600    1.000
    Si989    Si       0.16842    0.69306    0.35605    1.000
    N990     N        0.22810    0.71164    0.26047    1.000
    N991     N        0.13499    0.66682    0.34712    1.000
    Si992    Si       0.15128    0.66268    0.30650    1.000
    N993     N        0.05300    0.67577    0.44085    1.000
    Si994    Si       0.08843    0.69699    0.42811    1.000
    N995     N        0.08440    0.70361    0.38534    1.000
    Si996    Si       0.04329    0.70358    0.47092    1.000
    N997     N        0.17161    0.66757    0.49341    1.000
    Si998    Si       0.16075    0.70136    0.46656    1.000
    Si999    Si       0.23472    0.68383    0.37034    1.000
    N1000    N        0.19687    0.66598    0.37332    1.000
    N1001    N        0.12972    0.68481    0.44144    1.000
    Si1002   Si       0.23840    0.70419    0.44404    1.000
    Si1003   Si       0.21172    0.65203    0.49044    1.000
    N1004    N        0.05936    0.68743    0.57747    1.000
    Si1005   Si       0.07523    0.69476    0.53753    1.000
    N1006    N        0.04420    0.68391    0.50959    1.000
    N1007    N        0.11301    0.67432    0.53402    1.000
    Si1008   Si       0.18492    0.69732    0.58750    1.000
    N1009    N        0.15787    0.66312    0.58818    1.000
    N1010    N        0.22874    0.70491    0.58489    1.000
    N1011    N        0.99926    0.66819    0.67440    1.000
    N1012    N        0.05972    0.69728    0.64616    1.000
    N1013    N        0.06857    0.70406    0.71202    1.000
    Si1014   Si       0.03886    0.66129    0.65845    1.000
    Si1015   Si       0.06739    0.65950    0.72246    1.000
    N1016    N        0.19340    0.66369    0.65229    1.000
    Si1017   Si       0.20066    0.70668    0.65532    1.000
    N1018    N        0.02920    0.67556    0.80813    1.000
    N1019    N        0.09226    0.70394    0.83747    1.000
    Si1020   Si       0.06574    0.69947    0.80375    1.000
    N1021    N        0.08180    0.67244    0.76683    1.000
    Si1022   Si       0.09344    0.71251    0.74727    1.000
    Si1023   Si       0.11281    0.66187    0.84511    1.000
    N1024    N        0.20881    0.68563    0.79860    1.000
    Si1025   Si       0.16918    0.69153    0.81034    1.000
    N1026    N        0.14730    0.65631    0.82003    1.000
    Si1027   Si       0.08450    0.70627    0.88129    1.000
    Si1028   Si       0.02358    0.69569    0.91928    1.000
    N1029    N        0.05619    0.68323    0.94521    1.000
    Si1030   Si       0.05746    0.69594    0.98824    1.000
    N1031    N        0.10764    0.66833    0.88828    1.000
    N1032    N        0.19987    0.67722    0.89071    1.000
    N1033    N        0.14615    0.69168    0.93927    1.000
    Si1034   Si       0.18635    0.67419    0.93495    1.000
    N1035    N        0.22171    0.68324    0.95530    1.000
    Si1036   Si       0.01697    0.74048    0.09116    1.000
    N1037    N        0.03333    0.75739    0.05567    1.000
    Si1038   Si       0.00798    0.74588    0.02205    1.000
    N1039    N        0.05266    0.74325    0.11708    1.000
    Si1040   Si       0.21490    0.75284    0.11047    1.000
    N1041    N        0.14686    0.74113    0.01950    1.000
    N1042    N        0.12128    0.71679    0.11301    1.000
    N1043    N        0.21726    0.74052    0.00037    1.000
    Si1044   Si       0.17907    0.76181    0.99790    1.000
    Si1045   Si       0.13374    0.75676    0.12141    1.000
    Si1046   Si       0.05249    0.73849    0.22724    1.000
    N1047    N        0.08593    0.74383    0.19982    1.000
    Si1048   Si       0.16191    0.75506    0.24536    1.000
    N1049    N        0.17638    0.76466    0.13352    1.000
    N1050    N        0.23887    0.76008    0.14476    1.000
    Si1051   Si       0.20162    0.77091    0.17095    1.000
    N1052    N        0.19771    0.74077    0.20433    1.000
    Si1053   Si       0.23107    0.75034    0.23953    1.000
    N1054    N        0.03810    0.73613    0.33488    1.000
    Si1055   Si       0.03746    0.72845    0.29159    1.000
    N1056    N        0.09970    0.75699    0.34827    1.000
    N1057    N        0.07214    0.72444    0.26597    1.000
    N1058    N        0.01485    0.76637    0.28760    1.000
    Si1059   Si       0.06625    0.73855    0.36736    1.000
    Si1060   Si       0.01535    0.77441    0.33068    1.000
    N1061    N        0.14330    0.76182    0.28486    1.000
    N1062    N        0.19854    0.77181    0.26064    1.000
    Si1063   Si       0.10357    0.74620    0.49053    1.000
    N1064    N        0.01007    0.73142    0.46494    1.000
    N1065    N        0.07799    0.73116    0.45750    1.000
    N1066    N        0.04746    0.76244    0.39808    1.000
    Si1067   Si       0.07577    0.76976    0.43077    1.000
    Si1068   Si       0.19388    0.73826    0.40360    1.000
    N1069    N        0.14629    0.73547    0.49085    1.000
    N1070    N        0.19473    0.71526    0.44105    1.000
    N1071    N        0.22427    0.72556    0.37535    1.000
    Si1072   Si       0.13171    0.76253    0.37592    1.000
    N1073    N        0.15877    0.72836    0.37811    1.000
    N1074    N        0.09359    0.74240    0.59748    1.000
    N1075    N        0.08601    0.73538    0.52572    1.000
    Si1076   Si       0.08870    0.76169    0.55931    1.000
    N1077    N        0.02517    0.74432    0.61501    1.000
    N1078    N        0.99292    0.74356    0.55648    1.000
    Si1079   Si       0.98988    0.75983    0.59649    1.000
    Si1080   Si       0.05918    0.71692    0.60710    1.000
    N1081    N        0.17981    0.72555    0.55223    1.000
    Si1082   Si       0.16154    0.75409    0.52756    1.000
    Si1083   Si       0.18825    0.76602    0.61613    1.000
    Si1084   Si       0.22125    0.74008    0.55966    1.000
    N1085    N        0.17661    0.72371    0.62048    1.000
    Si1086   Si       0.07994    0.72273    0.67552    1.000
    N1087    N        0.06192    0.76363    0.66785    1.000
    Si1088   Si       0.02076    0.75329    0.65696    1.000
    N1089    N        0.02911    0.76932    0.73051    1.000
    N1090    N        0.98960    0.73326    0.68153    1.000
    Si1091   Si       0.14559    0.74432    0.69189    1.000
    N1092    N        0.18746    0.72402    0.69416    1.000
    N1093    N        0.12038    0.72618    0.66100    1.000
    Si1094   Si       0.13090    0.73966    0.62208    1.000
    Si1095   Si       0.21907    0.73036    0.72651    1.000
    N1096    N        0.12719    0.73111    0.72715    1.000
    N1097    N        0.06447    0.73348    0.77795    1.000
    Si1098   Si       0.02577    0.74915    0.76978    1.000
    N1099    N        0.99786    0.77238    0.87012    1.000
    N1100    N        0.99062    0.72559    0.75573    1.000
    N1101    N        0.01473    0.77491    0.80468    1.000
    Si1102   Si       0.12709    0.73118    0.83203    1.000
    Si1103   Si       0.15388    0.74562    0.75899    1.000
    N1104    N        0.22143    0.74705    0.86056    1.000
    N1105    N        0.19711    0.75071    0.75856    1.000
    N1106    N        0.13799    0.72044    0.78999    1.000
    N1107    N        0.16376    0.71439    0.84833    1.000
    Si1108   Si       0.03840    0.76410    0.88683    1.000
    Si1109   Si       0.02295    0.75688    0.95804    1.000
    N1110    N        0.05569    0.74225    0.98099    1.000
    N1111    N        0.00112    0.72264    0.94333    1.000
    N1112    N        0.04477    0.72183    0.89101    1.000
    N1113    N        0.11347    0.73871    0.89013    1.000
    Si1114   Si       0.09764    0.74688    0.99654    1.000
    Si1115   Si       0.19315    0.71820    0.87809    1.000
    N1116    N        0.18088    0.73831    0.91424    1.000
    Si1117   Si       0.13831    0.73204    0.92578    1.000
    N1118    N        0.12118    0.75444    0.95990    1.000
    N1119    N        0.06614    0.81082    0.09483    1.000
    N1120    N        0.03265    0.81809    0.03285    1.000
    Si1121   Si       0.06205    0.79364    0.05369    1.000
    N1122    N        0.09613    0.78121    0.02824    1.000
    Si1123   Si       0.99437    0.81931    0.00948    1.000
    Si1124   Si       0.17430    0.80046    0.10172    1.000
    N1125    N        0.17017    0.79983    0.02640    1.000
    Si1126   Si       0.21255    0.80445    0.04345    1.000
    N1127    N        0.21034    0.78318    0.08016    1.000
    Si1128   Si       0.13509    0.77710    0.04387    1.000
    N1129    N        0.13932    0.78040    0.08617    1.000
    Si1130   Si       0.06361    0.78268    0.12947    1.000
    Si1131   Si       0.04048    0.80734    0.19485    1.000
    N1132    N        0.08306    0.81410    0.19930    1.000
    N1133    N        0.02895    0.79419    0.15495    1.000
    Si1134   Si       0.10782    0.77983    0.19005    1.000
    Si1135   Si       0.98866    0.77639    0.15352    1.000
    N1136    N        0.10366    0.77580    0.14623    1.000
    N1137    N        0.03182    0.77658    0.22337    1.000
    N1138    N        0.20640    0.81028    0.18806    1.000
    N1139    N        0.14498    0.78342    0.21518    1.000
    Si1140   Si       0.16873    0.82115    0.20757    1.000
    N1141    N        0.09409    0.80686    0.29739    1.000
    N1142    N        0.03553    0.81300    0.33409    1.000
    Si1143   Si       0.00730    0.79232    0.25412    1.000
    Si1144   Si       0.05524    0.82572    0.29728    1.000
    N1145    N        0.02601    0.83079    0.26465    1.000
    Si1146   Si       0.11925    0.77737    0.31638    1.000
    N1147    N        0.21336    0.79335    0.32257    1.000
    Si1148   Si       0.19138    0.80099    0.36284    1.000
    Si1149   Si       0.17837    0.78749    0.29893    1.000
    N1150    N        0.15370    0.78702    0.34415    1.000
    N1151    N        0.16319    0.82398    0.28322    1.000
    N1152    N        0.04561    0.79643    0.45357    1.000
    Si1153   Si       0.00949    0.78707    0.40172    1.000
    N1154    N        0.10430    0.78705    0.47259    1.000
    Si1155   Si       0.07674    0.82294    0.46935    1.000
    Si1156   Si       0.01124    0.77608    0.46964    1.000
    N1157    N        0.01365    0.83179    0.39936    1.000
    N1158    N        0.11318    0.77978    0.40963    1.000
    N1159    N        0.19202    0.78076    0.40363    1.000
    Si1160   Si       0.12900    0.80692    0.43941    1.000
    Si1161   Si       0.20534    0.80234    0.43965    1.000
    Si1162   Si       0.17064    0.82354    0.49961    1.000
    N1163    N        0.23176    0.79078    0.47134    1.000
    N1164    N        0.16713    0.81241    0.45778    1.000
    N1165    N        0.05679    0.78941    0.54559    1.000
    N1166    N        0.99700    0.79995    0.58126    1.000
    N1167    N        0.99593    0.79084    0.50677    1.000
    Si1168   Si       0.01422    0.78145    0.54358    1.000
    N1169    N        0.05700    0.81887    0.62105    1.000
    N1170    N        0.09947    0.83371    0.57135    1.000
    N1171    N        0.18676    0.78905    0.51845    1.000
    Si1172   Si       0.21690    0.81880    0.57551    1.000
    Si1173   Si       0.23110    0.79188    0.51533    1.000
    Si1174   Si       0.13946    0.81884    0.55742    1.000
    N1175    N        0.13112    0.77762    0.55153    1.000
    N1176    N        0.21119    0.77636    0.58223    1.000
    N1177    N        0.24190    0.82544    0.53995    1.000
    N1178    N        0.99375    0.78711    0.65688    1.000
    N1179    N        0.08639    0.81476    0.73045    1.000
    Si1180   Si       0.06926    0.80599    0.66395    1.000
    Si1181   Si       0.04210    0.81124    0.72842    1.000
    N1182    N        0.03839    0.82581    0.68640    1.000
    Si1183   Si       0.99876    0.82849    0.66830    1.000
    N1184    N        0.14718    0.77958    0.62913    1.000
    Si1185   Si       0.12771    0.80664    0.73400    1.000
    Si1186   Si       0.14399    0.81015    0.65889    1.000
    Si1187   Si       0.21872    0.81991    0.65093    1.000
    N1188    N        0.21729    0.77684    0.64682    1.000
    N1189    N        0.14483    0.78902    0.69760    1.000
    N1190    N        0.23151    0.83015    0.69267    1.000
    Si1191   Si       0.02170    0.81735    0.80182    1.000
    Si1192   Si       0.06625    0.82551    0.85608    1.000
    N1193    N        0.01750    0.82859    0.75864    1.000
    N1194    N        0.06993    0.78502    0.86798    1.000
    N1195    N        0.23485    0.81338    0.76011    1.000
    Si1196   Si       0.14837    0.80140    0.80872    1.000
    N1197    N        0.19187    0.79757    0.81403    1.000
    Si1198   Si       0.21499    0.79029    0.85267    1.000
    N1199    N        0.14178    0.78607    0.76878    1.000
    Si1200   Si       0.21468    0.78332    0.78106    1.000
    N1201    N        0.12907    0.77442    0.83466    1.000
    N1202    N        0.02443    0.78343    0.92312    1.000
    N1203    N        0.99840    0.77466    0.99291    1.000
    Si1204   Si       0.11377    0.78134    0.87431    1.000
    Si1205   Si       0.13437    0.79399    0.95418    1.000
    N1206    N        0.19648    0.80515    0.88955    1.000
    N1207    N        0.13126    0.79826    0.91098    1.000
    N1208    N        0.17716    0.78360    0.96193    1.000
    Si1209   Si       0.19461    0.77767    0.92408    1.000
    N1210    N        0.23800    0.77937    0.93489    1.000
    N1211    N        0.13226    0.83108    0.97402    1.000
    Si1212   Si       0.07082    0.85334    0.10238    1.000
    N1213    N        0.06216    0.87020    0.06363    1.000
    Si1214   Si       0.02286    0.85680    0.05085    1.000
    N1215    N        0.99986    0.86808    0.01651    1.000
    N1216    N        0.10865    0.87408    0.11227    1.000
    N1217    N        0.99494    0.85687    0.08523    1.000
    Si1218   Si       0.08776    0.88170    0.03155    1.000
    Si1219   Si       0.00264    0.88119    0.12087    1.000
    N1220    N        0.12452    0.85807    0.03052    1.000
    N1221    N        0.20939    0.84465    0.06399    1.000
    Si1222   Si       0.18789    0.86744    0.09536    1.000
    Si1223   Si       0.15809    0.83841    0.00735    1.000
    N1224    N        0.19030    0.86932    0.00349    1.000
    N1225    N        0.16732    0.83989    0.11868    1.000
    N1226    N        0.04172    0.86820    0.13103    1.000
    N1227    N        0.02497    0.84974    0.19712    1.000
    Si1228   Si       0.05096    0.87810    0.17285    1.000
    N1229    N        0.09428    0.88223    0.18548    1.000
    Si1230   Si       0.10768    0.84733    0.20923    1.000
    Si1231   Si       0.01336    0.86763    0.24150    1.000
    N1232    N        0.21159    0.88637    0.12755    1.000
    Si1233   Si       0.13758    0.86246    0.14398    1.000
    N1234    N        0.14076    0.83849    0.17970    1.000
    N1235    N        0.17976    0.85874    0.22831    1.000
    N1236    N        0.06468    0.87005    0.30326    1.000
    Si1237   Si       0.08881    0.87794    0.33976    1.000
    Si1238   Si       0.03545    0.84411    0.36267    1.000
    N1239    N        0.01763    0.87972    0.34670    1.000
    N1240    N        0.10502    0.85745    0.25106    1.000
    Si1241   Si       0.07939    0.88839    0.26511    1.000
    N1242    N        0.99395    0.89082    0.28215    1.000
    N1243    N        0.18779    0.84487    0.36397    1.000
    N1244    N        0.12543    0.85949    0.32649    1.000
    Si1245   Si       0.18835    0.85539    0.27170    1.000
    Si1246   Si       0.16420    0.87219    0.33956    1.000
    N1247    N        0.23016    0.84687    0.27419    1.000
    Si1248   Si       0.12099    0.83881    0.28746    1.000
    N1249    N        0.17912    0.88704    0.30068    1.000
    N1250    N        0.07497    0.85803    0.37573    1.000
    N1251    N        0.04633    0.87586    0.44272    1.000
    Si1252   Si       0.08209    0.87254    0.41600    1.000
    Si1253   Si       0.00669    0.86525    0.42544    1.000
    Si1254   Si       0.04894    0.88619    0.48576    1.000
    N1255    N        0.10311    0.84168    0.43961    1.000
    Si1256   Si       0.20569    0.86611    0.39638    1.000
    Si1257   Si       0.19339    0.88490    0.46863    1.000
    N1258    N        0.22754    0.83399    0.41745    1.000
    N1259    N        0.20110    0.85378    0.49583    1.000
    N1260    N        0.17703    0.88007    0.42758    1.000
    N1261    N        0.03248    0.85247    0.56552    1.000
    N1262    N        0.06515    0.84819    0.50249    1.000
    Si1263   Si       0.09317    0.84403    0.61355    1.000
    Si1264   Si       0.01461    0.88997    0.55264    1.000
    Si1265   Si       0.06565    0.83356    0.54368    1.000
    N1266    N        0.01104    0.89059    0.50872    1.000
    Si1267   Si       0.02084    0.82989    0.60022    1.000
    N1268    N        0.12866    0.87155    0.61311    1.000
    N1269    N        0.14044    0.84277    0.52161    1.000
    Si1270   Si       0.17409    0.86242    0.61299    1.000
    Si1271   Si       0.13705    0.88568    0.52151    1.000
    N1272    N        0.23592    0.83423    0.61404    1.000
    Si1273   Si       0.23894    0.86424    0.51526    1.000
    N1274    N        0.17543    0.83386    0.57976    1.000
    N1275    N        0.99048    0.89124    0.74542    1.000
    N1276    N        0.09068    0.88276    0.69605    1.000
    N1277    N        0.00197    0.85484    0.63289    1.000
    Si1278   Si       0.09620    0.85862    0.73183    1.000
    N1279    N        0.07150    0.88208    0.63162    1.000
    Si1280   Si       0.10872    0.87769    0.65708    1.000
    N1281    N        0.10563    0.83143    0.65538    1.000
    N1282    N        0.17851    0.83417    0.64814    1.000
    Si1283   Si       0.23571    0.87335    0.69290    1.000
    N1284    N        0.13881    0.84941    0.73725    1.000
    Si1285   Si       0.06183    0.87842    0.80431    1.000
    N1286    N        0.06835    0.87627    0.76060    1.000
    Si1287   Si       0.99504    0.85259    0.86644    1.000
    N1288    N        0.10717    0.83615    0.86656    1.000
    N1289    N        0.05682    0.83859    0.81648    1.000
    Si1290   Si       0.12721    0.86518    0.83930    1.000
    N1291    N        0.19861    0.87464    0.76677    1.000
    Si1292   Si       0.15670    0.86648    0.77149    1.000
    N1293    N        0.14441    0.84359    0.80486    1.000
    Si1294   Si       0.23896    0.85572    0.76232    1.000
    N1295    N        0.21591    0.86957    0.86907    1.000
    N1296    N        0.03611    0.84198    0.88082    1.000
    N1297    N        0.08545    0.84334    0.93309    1.000
    N1298    N        0.01709    0.86519    0.94886    1.000
    Si1299   Si       0.10238    0.86306    0.96899    1.000
    Si1300   Si       0.04892    0.85922    0.91925    1.000
    Si1301   Si       0.02906    0.88646    0.98577    1.000
    N1302    N        0.06939    0.87444    0.99350    1.000
    Si1303   Si       0.21408    0.88106    0.96915    1.000
    N1304    N        0.21756    0.84871    0.93959    1.000
    Si1305   Si       0.11984    0.84081    0.90706    1.000
    N1306    N        0.15527    0.86592    0.90592    1.000
    Si1307   Si       0.19634    0.84759    0.90167    1.000
    N1308    N        0.10341    0.91934    0.04934    1.000
    N1309    N        0.00621    0.92700    0.11497    1.000
    N1310    N        0.16632    0.93355    0.01396    1.000
    N1311    N        0.22663    0.90522    0.04688    1.000
    Si1312   Si       0.18572    0.90020    0.03559    1.000
    Si1313   Si       0.12367    0.90573    0.08677    1.000
    N1314    N        0.16445    0.89747    0.07306    1.000
    N1315    N        0.12186    0.94869    0.10002    1.000
    N1316    N        0.03156    0.91711    0.17631    1.000
    Si1317   Si       0.02769    0.93235    0.21742    1.000
    N1318    N        0.04419    0.89983    0.24170    1.000
    N1319    N        0.10655    0.95239    0.18138    1.000
    Si1320   Si       0.02399    0.94957    0.14680    1.000
    N1321    N        0.14918    0.91792    0.22332    1.000
    N1322    N        0.20346    0.92633    0.18520    1.000
    N1323    N        0.15240    0.90165    0.15495    1.000
    Si1324   Si       0.18927    0.92067    0.14486    1.000
    Si1325   Si       0.12566    0.91298    0.18805    1.000
    Si1326   Si       0.18972    0.90262    0.21928    1.000
    N1327    N        0.09081    0.91938    0.34674    1.000
    N1328    N        0.10264    0.92233    0.27818    1.000
    N1329    N        0.04220    0.93913    0.30594    1.000
    Si1330   Si       0.08653    0.94629    0.31299    1.000
    Si1331   Si       0.02997    0.89472    0.30813    1.000
    N1332    N        0.00674    0.94708    0.36256    1.000
    N1333    N        0.21243    0.91143    0.25439    1.000
    Si1334   Si       0.19324    0.92598    0.29063    1.000
    N1335    N        0.21836    0.93539    0.32432    1.000
    Si1336   Si       0.19749    0.93316    0.36197    1.000
    N1337    N        0.15949    0.91169    0.35995    1.000
    Si1338   Si       0.13233    0.94239    0.25516    1.000
    Si1339   Si       0.12038    0.92710    0.37461    1.000
    N1340    N        0.11034    0.90629    0.41136    1.000
    N1341    N        0.06414    0.92625    0.49470    1.000
    N1342    N        0.22052    0.91831    0.46474    1.000
    N1343    N        0.15296    0.89741    0.48176    1.000
    N1344    N        0.15948    0.94684    0.44221    1.000
    Si1345   Si       0.14341    0.90647    0.44051    1.000
    N1346    N        0.22562    0.90470    0.38352    1.000
    N1347    N        0.03840    0.92265    0.56689    1.000
    Si1348   Si       0.07182    0.92843    0.53766    1.000
    N1349    N        0.10177    0.89837    0.54537    1.000
    Si1350   Si       0.01379    0.94543    0.59711    1.000
    N1351    N        0.11110    0.94002    0.59959    1.000
    Si1352   Si       0.12643    0.90324    0.58241    1.000
    N1353    N        0.16402    0.90282    0.55322    1.000
    Si1354   Si       0.22463    0.92065    0.60759    1.000
    Si1355   Si       0.19894    0.92721    0.54072    1.000
    N1356    N        0.23778    0.90345    0.53634    1.000
    N1357    N        0.21099    0.94820    0.57724    1.000
    N1358    N        0.00089    0.91797    0.62963    1.000
    N1359    N        0.05104    0.93703    0.72985    1.000
    Si1360   Si       0.06446    0.91641    0.69587    1.000
    N1361    N        0.02547    0.90284    0.68263    1.000
    Si1362   Si       0.10937    0.95024    0.64304    1.000
    N1363    N        0.07101    0.94611    0.66466    1.000
    Si1364   Si       0.03047    0.88838    0.64111    1.000
    N1365    N        0.19308    0.89923    0.62846    1.000
    Si1366   Si       0.17631    0.91773    0.66474    1.000
    Si1367   Si       0.20318    0.90759    0.73913    1.000
    N1368    N        0.19810    0.89817    0.69633    1.000
    N1369    N        0.13387    0.91819    0.66077    1.000
    N1370    N        0.03053    0.90788    0.79875    1.000
    Si1371   Si       0.08994    0.93061    0.85417    1.000
    N1372    N        0.04762    0.93592    0.85845    1.000
    Si1373   Si       0.03366    0.90444    0.75464    1.000
    Si1374   Si       0.02630    0.94443    0.82121    1.000
    N1375    N        0.09398    0.89375    0.83065    1.000
    N1376    N        0.19543    0.94672    0.75805    1.000
    N1377    N        0.15765    0.89563    0.84447    1.000
    N1378    N        0.13957    0.90591    0.77810    1.000
    Si1379   Si       0.14464    0.92583    0.81457    1.000
    Si1380   Si       0.20014    0.90568    0.84781    1.000
    N1381    N        0.22844    0.91794    0.81766    1.000
    Si1382   Si       0.02943    0.91916    0.89152    1.000
    Si1383   Si       0.09429    0.91955    0.93085    1.000
    N1384    N        0.06105    0.89951    0.91194    1.000
    N1385    N        0.02133    0.92992    0.99163    1.000
    N1386    N        0.99587    0.89549    0.87548    1.000
    N1387    N        0.00945    0.94531    0.92147    1.000
    N1388    N        0.11410    0.92781    0.89234    1.000
    Si1389   Si       0.15454    0.92582    0.97235    1.000
    N1390    N        0.12164    0.90041    0.96127    1.000
    Si1391   Si       0.15115    0.90669    0.88826    1.000
    N1392    N        0.18832    0.93028    0.88511    1.000
    Si1393   Si       0.20522    0.94065    0.92411    1.000
    N1394    N        0.19120    0.91370    0.95321    1.000
    N1395    N        0.01611    0.98616    0.04336    1.000
    N1396    N        0.09370    0.97640    0.01791    1.000
    N1397    N        0.07642    0.99251    0.07471    1.000
    Si1398   Si       0.05677    0.99847    0.03585    1.000
    Si1399   Si       0.11030    0.96409    0.05860    1.000
    Si1400   Si       0.99558    0.00369    0.07752    1.000
    Si1401   Si       0.99731    0.95603    0.01734    1.000
    Si1402   Si       0.06169    0.00624    0.11271    1.000
    N1403    N        0.15095    0.98944    0.05834    1.000
    Si1404   Si       0.17683    0.97313    0.02693    1.000
    N1405    N        0.22030    0.97234    0.03785    1.000
    Si1406   Si       0.22950    0.97472    0.11928    1.000
    Si1407   Si       0.15532    0.97960    0.10268    1.000
    N1408    N        0.18992    0.95740    0.11954    1.000
    N1409    N        0.98987    0.97380    0.16449    1.000
    N1410    N        0.06169    0.97092    0.13608    1.000
    Si1411   Si       0.10503    0.95854    0.13898    1.000
    Si1412   Si       0.08644    0.98054    0.20559    1.000
    N1413    N        0.04550    0.97197    0.21436    1.000
    N1414    N        0.11080    0.97783    0.24156    1.000
    N1415    N        0.21304    0.00305    0.20599    1.000
    N1416    N        0.13316    0.99484    0.13985    1.000
    Si1417   Si       0.22741    0.96267    0.19526    1.000
    Si1418   Si       0.00760    0.96121    0.32212    1.000
    N1419    N        0.10497    0.98461    0.31345    1.000
    N1420    N        0.02093    0.00222    0.32226    1.000
    Si1421   Si       0.10441    0.00539    0.27382    1.000
    Si1422   Si       0.17405    0.99984    0.29001    1.000
    N1423    N        0.16459    0.95630    0.28137    1.000
    Si1424   Si       0.12893    0.00183    0.34697    1.000
    N1425    N        0.21092    0.00541    0.26993    1.000
    N1426    N        0.08300    0.99559    0.47019    1.000
    Si1427   Si       0.05291    0.96305    0.47382    1.000
    Si1428   Si       0.00623    0.96515    0.40125    1.000
    N1429    N        0.03431    0.96677    0.43441    1.000
    N1430    N        0.01280    0.00855    0.39327    1.000
    Si1431   Si       0.19260    0.95160    0.46843    1.000
    Si1432   Si       0.22416    0.99011    0.40787    1.000
    N1433    N        0.21535    0.98521    0.44893    1.000
    Si1434   Si       0.15632    0.97519    0.40976    1.000
    N1435    N        0.19275    0.96745    0.38800    1.000
    N1436    N        0.12646    0.97023    0.37645    1.000
    N1437    N        0.09107    0.96574    0.54006    1.000
    Si1438   Si       0.09286    0.99988    0.51427    1.000
    N1439    N        0.02103    0.97811    0.50285    1.000
    N1440    N        0.02689    0.98067    0.62265    1.000
    Si1441   Si       0.11424    0.97646    0.57608    1.000
    Si1442   Si       0.19232    0.98543    0.58204    1.000
    N1443    N        0.15486    0.98191    0.56350    1.000
    Si1444   Si       0.17261    0.99728    0.52432    1.000
    N1445    N        0.18750    0.95759    0.51045    1.000
    N1446    N        0.19442    0.00433    0.62117    1.000
    N1447    N        0.04986    0.00005    0.69910    1.000
    Si1448   Si       0.03649    0.97401    0.66504    1.000
    Si1449   Si       0.05369    0.97929    0.73662    1.000
    N1450    N        0.99702    0.96641    0.68258    1.000
    Si1451   Si       0.98906    0.98315    0.72456    1.000
    N1452    N        0.18587    0.96047    0.67026    1.000
    N1453    N        0.12437    0.98943    0.65148    1.000
    N1454    N        0.14836    0.99275    0.72187    1.000
    Si1455   Si       0.15637    0.99181    0.67952    1.000
    Si1456   Si       0.21958    0.97829    0.65009    1.000
    Si1457   Si       0.08996    0.98382    0.80095    1.000
    N1458    N        0.04906    0.98064    0.81060    1.000
    N1459    N        0.01798    0.99401    0.75447    1.000
    N1460    N        0.09121    0.98954    0.75711    1.000
    Si1461   Si       0.01305    0.00109    0.79589    1.000
    N1462    N        0.11364    0.95573    0.82418    1.000
    Si1463   Si       0.14518    0.98819    0.82550    1.000
    N1464    N        0.23062    0.98025    0.86061    1.000
    N1465    N        0.17624    0.95324    0.82627    1.000
    Si1466   Si       0.17921    0.98920    0.75167    1.000
    Si1467   Si       0.21110    0.95410    0.79874    1.000
    N1468    N        0.16433    0.00769    0.86133    1.000
    N1469    N        0.23498    0.99060    0.79490    1.000
    Si1470   Si       0.10053    0.97676    0.97463    1.000
    N1471    N        0.02240    0.99237    0.97425    1.000
    Si1472   Si       0.03080    0.95306    0.95768    1.000
    N1473    N        0.07513    0.95057    0.95215    1.000
    N1474    N        0.02704    0.00682    0.90140    1.000
    N1475    N        0.14072    0.96511    0.95983    1.000
    N1476    N        0.19199    0.98186    0.91951    1.000
    Si1477   Si       0.18895    0.97456    0.87567    1.000
    Si1478   Si       0.16835    0.99724    0.95254    1.000
    N1479    N        0.18334    0.99980    0.99354    1.000
    N1480    N        0.29155    0.04274    0.08754    1.000
    Si1481   Si       0.32189    0.05008    0.05925    1.000
    Si1482   Si       0.26032    0.01962    0.06660    1.000
    N1483    N        0.35659    0.02758    0.04553    1.000
    Si1484   Si       0.29073    0.02621    0.00079    1.000
    N1485    N        0.30853    0.06303    0.01909    1.000
    Si1486   Si       0.42517    0.05805    0.09726    1.000
    N1487    N        0.42816    0.04831    0.01885    1.000
    N1488    N        0.41796    0.02093    0.07865    1.000
    N1489    N        0.46683    0.06083    0.11134    1.000
    Si1490   Si       0.43529    0.00908    0.04007    1.000
    Si1491   Si       0.28237    0.06104    0.23587    1.000
    Si1492   Si       0.29170    0.06098    0.12762    1.000
    N1493    N        0.27425    0.03152    0.15430    1.000
    Si1494   Si       0.34250    0.02123    0.21395    1.000
    N1495    N        0.31932    0.05893    0.21608    1.000
    N1496    N        0.24725    0.05412    0.21325    1.000
    N1497    N        0.33179    0.06675    0.14796    1.000
    N1498    N        0.42981    0.04974    0.23275    1.000
    Si1499   Si       0.36697    0.03981    0.14479    1.000
    N1500    N        0.45077    0.02046    0.17211    1.000
    Si1501   Si       0.47496    0.04801    0.15074    1.000
    N1502    N        0.37512    0.02761    0.18657    1.000
    Si1503   Si       0.41718    0.02136    0.20289    1.000
    N1504    N        0.27920    0.02939    0.26618    1.000
    Si1505   Si       0.35667    0.03571    0.29057    1.000
    Si1506   Si       0.34046    0.01167    0.35858    1.000
    N1507    N        0.35973    0.01257    0.25222    1.000
    N1508    N        0.33341    0.01069    0.31601    1.000
    Si1509   Si       0.43162    0.03440    0.27528    1.000
    Si1510   Si       0.41208    0.04530    0.34492    1.000
    N1511    N        0.39898    0.03772    0.30365    1.000
    N1512    N        0.45588    0.03382    0.35018    1.000
    Si1513   Si       0.47927    0.05555    0.32110    1.000
    N1514    N        0.37998    0.02430    0.36795    1.000
    N1515    N        0.45933    0.06833    0.28415    1.000
    N1516    N        0.30809    0.03462    0.37830    1.000
    Si1517   Si       0.32620    0.02936    0.45893    1.000
    N1518    N        0.30850    0.06787    0.45224    1.000
    N1519    N        0.36494    0.02696    0.44036    1.000
    N1520    N        0.42553    0.03307    0.41831    1.000
    Si1521   Si       0.39785    0.05682    0.44524    1.000
    Si1522   Si       0.45946    0.02205    0.39146    1.000
    Si1523   Si       0.34377    0.02689    0.53318    1.000
    N1524    N        0.27081    0.02446    0.57627    1.000
    Si1525   Si       0.25376    0.05930    0.60143    1.000
    Si1526   Si       0.24498    0.03067    0.54062    1.000
    N1527    N        0.31988    0.01449    0.50035    1.000
    N1528    N        0.25380    0.00890    0.50524    1.000
    N1529    N        0.45015    0.02925    0.60706    1.000
    N1530    N        0.45380    0.03805    0.53279    1.000
    Si1531   Si       0.41388    0.04631    0.51796    1.000
    Si1532   Si       0.44606    0.05800    0.57244    1.000
    N1533    N        0.38351    0.01569    0.52005    1.000
    N1534    N        0.40556    0.06398    0.55761    1.000
    Si1535   Si       0.33577    0.05918    0.70150    1.000
    N1536    N        0.28795    0.05442    0.63331    1.000
    N1537    N        0.32424    0.02231    0.68113    1.000
    Si1538   Si       0.28952    0.01552    0.65502    1.000
    N1539    N        0.34450    0.05306    0.74372    1.000
    N1540    N        0.24508    0.00826    0.67007    1.000
    N1541    N        0.48824    0.06268    0.72368    1.000
    Si1542   Si       0.42151    0.02589    0.70576    1.000
    N1543    N        0.43530    0.03744    0.66752    1.000
    Si1544   Si       0.41211    0.03962    0.63134    1.000
    N1545    N        0.45226    0.00793    0.72820    1.000
    Si1546   Si       0.47347    0.03295    0.64404    1.000
    N1547    N        0.41279    0.06552    0.73071    1.000
    Si1548   Si       0.31413    0.04084    0.83808    1.000
    N1549    N        0.27103    0.03665    0.84400    1.000
    Si1550   Si       0.31121    0.04051    0.77016    1.000
    N1551    N        0.27111    0.03972    0.75140    1.000
    N1552    N        0.31911    0.06825    0.80208    1.000
    Si1553   Si       0.23805    0.01315    0.83076    1.000
    Si1554   Si       0.38409    0.05632    0.76282    1.000
    N1555    N        0.44654    0.05355    0.79298    1.000
    Si1556   Si       0.42538    0.01742    0.80254    1.000
    N1557    N        0.39146    0.01583    0.77381    1.000
    Si1558   Si       0.37848    0.03064    0.86592    1.000
    N1559    N        0.41481    0.01616    0.84585    1.000
    Si1560   Si       0.45333    0.06895    0.75060    1.000
    N1561    N        0.25775    0.00374    0.98069    1.000
    N1562    N        0.31581    0.06173    0.87964    1.000
    Si1563   Si       0.35378    0.03499    0.94444    1.000
    Si1564   Si       0.27794    0.04568    0.89094    1.000
    N1565    N        0.31674    0.02357    0.96250    1.000
    N1566    N        0.36735    0.01520    0.90677    1.000
    Si1567   Si       0.42260    0.04037    0.97555    1.000
    N1568    N        0.46819    0.02608    0.89291    1.000
    N1569    N        0.38187    0.02466    0.97563    1.000
    N1570    N        0.45080    0.01204    0.96488    1.000
    N1571    N        0.33598    0.08965    0.07813    1.000
    Si1572   Si       0.33239    0.10058    0.00816    1.000
    Si1573   Si       0.30777    0.12319    0.07539    1.000
    N1574    N        0.26422    0.12739    0.06550    1.000
    Si1575   Si       0.37339    0.09367    0.09862    1.000
    Si1576   Si       0.40949    0.08590    0.02787    1.000
    N1577    N        0.40592    0.08589    0.06973    1.000
    Si1578   Si       0.48003    0.11125    0.01569    1.000
    N1579    N        0.43599    0.11994    0.01585    1.000
    N1580    N        0.37383    0.09322    0.00340    1.000
    N1581    N        0.48921    0.08228    0.04643    1.000
    Si1582   Si       0.48955    0.08996    0.08914    1.000
    N1583    N        0.26865    0.09674    0.12445    1.000
    Si1584   Si       0.33142    0.08796    0.18613    1.000
    N1585    N        0.30018    0.11630    0.18217    1.000
    N1586    N        0.46464    0.12038    0.22397    1.000
    Si1587   Si       0.39972    0.10688    0.15444    1.000
    Si1588   Si       0.38168    0.12927    0.22403    1.000
    N1589    N        0.37264    0.10548    0.18897    1.000
    N1590    N        0.39786    0.06991    0.13091    1.000
    Si1591   Si       0.30937    0.09662    0.31309    1.000
    N1592    N        0.32393    0.09993    0.35480    1.000
    N1593    N        0.34292    0.07637    0.29031    1.000
    N1594    N        0.27265    0.07731    0.32686    1.000
    Si1595   Si       0.28940    0.07239    0.36533    1.000
    N1596    N        0.27393    0.10092    0.25388    1.000
    Si1597   Si       0.36945    0.10852    0.28145    1.000
    N1598    N        0.41522    0.08745    0.35727    1.000
    N1599    N        0.40329    0.10656    0.25498    1.000
    Si1600   Si       0.45709    0.10601    0.36629    1.000
    N1601    N        0.49064    0.09190    0.34451    1.000
    Si1602   Si       0.44300    0.08829    0.24748    1.000
    N1603    N        0.31479    0.12644    0.41755    1.000
    Si1604   Si       0.27108    0.07761    0.47133    1.000
    N1605    N        0.26516    0.08813    0.39815    1.000
    N1606    N        0.25921    0.11929    0.46319    1.000
    Si1607   Si       0.33495    0.10245    0.44589    1.000
    N1608    N        0.33859    0.10965    0.48865    1.000
    Si1609   Si       0.27153    0.12703    0.42185    1.000
    N1610    N        0.46931    0.11120    0.49453    1.000
    N1611    N        0.41610    0.07151    0.48277    1.000
    Si1612   Si       0.42948    0.11172    0.47760    1.000
    N1613    N        0.47430    0.10658    0.40667    1.000
    N1614    N        0.37580    0.09347    0.43609    1.000
    Si1615   Si       0.26040    0.10343    0.54815    1.000
    N1616    N        0.27817    0.10344    0.59284    1.000
    Si1617   Si       0.31314    0.09458    0.51839    1.000
    N1618    N        0.35018    0.08128    0.60625    1.000
    N1619    N        0.27636    0.07454    0.51459    1.000
    N1620    N        0.34098    0.06929    0.54199    1.000
    Si1621   Si       0.31049    0.09093    0.62019    1.000
    Si1622   Si       0.37076    0.08800    0.56857    1.000
    N1623    N        0.46387    0.09718    0.57400    1.000
    Si1624   Si       0.47754    0.12032    0.53642    1.000
    Si1625   Si       0.42779    0.11678    0.59397    1.000
    N1626    N        0.38984    0.12748    0.57457    1.000
    N1627    N        0.29819    0.08261    0.70155    1.000
    Si1628   Si       0.26523    0.07483    0.72913    1.000
    N1629    N        0.32311    0.12083    0.64989    1.000
    Si1630   Si       0.29385    0.12130    0.68108    1.000
    N1631    N        0.25683    0.12075    0.65867    1.000
    N1632    N        0.41374    0.08290    0.62051    1.000
    Si1633   Si       0.37556    0.09531    0.63916    1.000
    N1634    N        0.48678    0.07511    0.64648    1.000
    N1635    N        0.36995    0.07717    0.67887    1.000
    Si1636   Si       0.39965    0.09743    0.70128    1.000
    N1637    N        0.43681    0.11266    0.68572    1.000
    Si1638   Si       0.47496    0.09009    0.68574    1.000
    Si1639   Si       0.34035    0.10524    0.79660    1.000
    N1640    N        0.26225    0.10860    0.76016    1.000
    Si1641   Si       0.24430    0.07276    0.84798    1.000
    N1642    N        0.23751    0.11296    0.83414    1.000
    N1643    N        0.34561    0.12480    0.83529    1.000
    N1644    N        0.42659    0.11540    0.83461    1.000
    N1645    N        0.38325    0.09262    0.79091    1.000
    N1646    N        0.45098    0.11020    0.76660    1.000
    Si1647   Si       0.45555    0.09196    0.80968    1.000
    Si1648   Si       0.38655    0.10269    0.83465    1.000
    Si1649   Si       0.40976    0.12362    0.76883    1.000
    N1650    N        0.37774    0.07297    0.86390    1.000
    Si1651   Si       0.34616    0.08710    0.89445    1.000
    N1652    N        0.24822    0.07665    0.89206    1.000
    N1653    N        0.35471    0.07571    0.93460    1.000
    N1654    N        0.31480    0.12019    0.97460    1.000
    N1655    N        0.42340    0.08064    0.95634    1.000
    N1656    N        0.48256    0.09633    0.90751    1.000
    Si1657   Si       0.38282    0.09667    0.96108    1.000
    Si1658   Si       0.45915    0.10418    0.94514    1.000
    N1659    N        0.31542    0.14506    0.11335    1.000
    N1660    N        0.32568    0.13746    0.03568    1.000
    Si1661   Si       0.35306    0.17081    0.03859    1.000
    N1662    N        0.26264    0.16679    0.00643    1.000
    Si1663   Si       0.35644    0.16314    0.11376    1.000
    Si1664   Si       0.30377    0.15876    0.00183    1.000
    Si1665   Si       0.23873    0.14328    0.03340    1.000
    N1666    N        0.38362    0.16782    0.00689    1.000
    N1667    N        0.37451    0.17483    0.07610    1.000
    Si1668   Si       0.42523    0.16188    0.01471    1.000
    Si1669   Si       0.47963    0.16323    0.06980    1.000
    N1670    N        0.47250    0.13064    0.09662    1.000
    N1671    N        0.44142    0.18231    0.05303    1.000
    N1672    N        0.44237    0.18739    0.11651    1.000
    Si1673   Si       0.26092    0.13283    0.20207    1.000
    N1674    N        0.28161    0.16145    0.22928    1.000
    N1675    N        0.25253    0.15301    0.16221    1.000
    Si1676   Si       0.28590    0.13241    0.14339    1.000
    N1677    N        0.38161    0.12854    0.12136    1.000
    Si1678   Si       0.44061    0.15063    0.20531    1.000
    N1679    N        0.40319    0.16655    0.21763    1.000
    Si1680   Si       0.45807    0.15087    0.13277    1.000
    N1681    N        0.43386    0.13334    0.16592    1.000
    N1682    N        0.46757    0.18503    0.20461    1.000
    Si1683   Si       0.29693    0.17217    0.32305    1.000
    N1684    N        0.30692    0.13796    0.29958    1.000
    Si1685   Si       0.30348    0.13381    0.25576    1.000
    N1686    N        0.30572    0.16686    0.36432    1.000
    N1687    N        0.25177    0.17636    0.31640    1.000
    N1688    N        0.34522    0.12903    0.24705    1.000
    Si1689   Si       0.39873    0.12714    0.35289    1.000
    N1690    N        0.43973    0.14494    0.35340    1.000
    Si1691   Si       0.45868    0.17073    0.32468    1.000
    N1692    N        0.37903    0.13533    0.31539    1.000
    Si1693   Si       0.38705    0.17675    0.30525    1.000
    N1694    N        0.42967    0.18479    0.29492    1.000
    N1695    N        0.25281    0.16308    0.40503    1.000
    Si1696   Si       0.33109    0.13585    0.37873    1.000
    N1697    N        0.36100    0.16318    0.45656    1.000
    N1698    N        0.37235    0.14030    0.38378    1.000
    Si1699   Si       0.38883    0.15240    0.42317    1.000
    N1700    N        0.42807    0.13796    0.44098    1.000
    Si1701   Si       0.47082    0.14521    0.43027    1.000
    Si1702   Si       0.36709    0.14292    0.49452    1.000
    Si1703   Si       0.30755    0.16858    0.52499    1.000
    N1704    N        0.35002    0.16489    0.52540    1.000
    N1705    N        0.34552    0.17066    0.59963    1.000
    Si1706   Si       0.25672    0.13348    0.61774    1.000
    N1707    N        0.29327    0.12940    0.53521    1.000
    N1708    N        0.27821    0.17165    0.61858    1.000
    Si1709   Si       0.37057    0.16722    0.56544    1.000
    N1710    N        0.46541    0.16174    0.53793    1.000
    N1711    N        0.40966    0.13937    0.50432    1.000
    Si1712   Si       0.43161    0.17855    0.51693    1.000
    N1713    N        0.44575    0.14465    0.62094    1.000
    Si1714   Si       0.48624    0.16203    0.62127    1.000
    Si1715   Si       0.34760    0.15583    0.64012    1.000
    N1716    N        0.29505    0.15260    0.70987    1.000
    Si1717   Si       0.42660    0.14737    0.65897    1.000
    N1718    N        0.48191    0.17662    0.66226    1.000
    N1719    N        0.38461    0.13601    0.64732    1.000
    N1720    N        0.48069    0.16971    0.73603    1.000
    N1721    N        0.38719    0.12834    0.73013    1.000
    N1722    N        0.27061    0.16565    0.78595    1.000
    Si1723   Si       0.32250    0.14975    0.86247    1.000
    N1724    N        0.32914    0.13326    0.76717    1.000
    N1725    N        0.27985    0.15815    0.86137    1.000
    Si1726   Si       0.28900    0.14261    0.75208    1.000
    Si1727   Si       0.24460    0.13022    0.79404    1.000
    Si1728   Si       0.23957    0.14791    0.86075    1.000
    Si1729   Si       0.35981    0.15838    0.75057    1.000
    N1730    N        0.45300    0.17829    0.81378    1.000
    N1731    N        0.39159    0.16279    0.78068    1.000
    Si1732   Si       0.44078    0.15304    0.84794    1.000
    Si1733   Si       0.33409    0.13844    0.94085    1.000
    N1734    N        0.32676    0.17862    0.95806    1.000
    N1735    N        0.32652    0.12749    0.89955    1.000
    Si1736   Si       0.40674    0.15884    0.92163    1.000
    N1737    N        0.40942    0.16778    0.87599    1.000
    N1738    N        0.47543    0.15934    0.87499    1.000
    N1739    N        0.37655    0.13439    0.94201    1.000
    Si1740   Si       0.46951    0.17687    0.95283    1.000
    N1741    N        0.44303    0.14449    0.93776    1.000
    N1742    N        0.32231    0.19810    0.02181    1.000
    Si1743   Si       0.32827    0.23858    0.00517    1.000
    Si1744   Si       0.25758    0.24039    0.09688    1.000
    N1745    N        0.32885    0.23524    0.09448    1.000
    N1746    N        0.39992    0.23564    0.08331    1.000
    Si1747   Si       0.45681    0.21457    0.02614    1.000
    Si1748   Si       0.41114    0.19396    0.08388    1.000
    N1749    N        0.27629    0.20680    0.12357    1.000
    Si1750   Si       0.24503    0.19496    0.15021    1.000
    N1751    N        0.25031    0.21327    0.18911    1.000
    N1752    N        0.31593    0.22293    0.24003    1.000
    Si1753   Si       0.31783    0.21782    0.13288    1.000
    Si1754   Si       0.27779    0.20630    0.22562    1.000
    N1755    N        0.35952    0.19974    0.13817    1.000
    N1756    N        0.31035    0.24221    0.16967    1.000
    Si1757   Si       0.48863    0.21615    0.22813    1.000
    Si1758   Si       0.45763    0.22427    0.13120    1.000
    Si1759   Si       0.38812    0.20283    0.23165    1.000
    Si1760   Si       0.38505    0.23009    0.15870    1.000
    N1761    N        0.37007    0.22631    0.20003    1.000
    N1762    N        0.42791    0.23466    0.16176    1.000
    N1763    N        0.42268    0.22970    0.23908    1.000
    N1764    N        0.30876    0.21202    0.31114    1.000
    Si1765   Si       0.33601    0.22368    0.27804    1.000
    N1766    N        0.24634    0.21808    0.25325    1.000
    Si1767   Si       0.24527    0.21279    0.29560    1.000
    N1768    N        0.36764    0.19404    0.27122    1.000
    N1769    N        0.38026    0.19948    0.34119    1.000
    N1770    N        0.47411    0.20795    0.34169    1.000
    Si1771   Si       0.44173    0.22146    0.27715    1.000
    N1772    N        0.48352    0.21754    0.27100    1.000
    N1773    N        0.27805    0.23144    0.37390    1.000
    Si1774   Si       0.26159    0.20817    0.47755    1.000
    N1775    N        0.31503    0.20367    0.42045    1.000
    N1776    N        0.25443    0.22929    0.43986    1.000
    Si1777   Si       0.33159    0.19398    0.45852    1.000
    N1778    N        0.35046    0.23501    0.46233    1.000
    Si1779   Si       0.28658    0.19234    0.39213    1.000
    N1780    N        0.29857    0.18672    0.48557    1.000
    Si1781   Si       0.43999    0.24625    0.48359    1.000
    N1782    N        0.42186    0.24419    0.37188    1.000
    N1783    N        0.46615    0.18567    0.41524    1.000
    N1784    N        0.39713    0.19441    0.41247    1.000
    Si1785   Si       0.38940    0.21918    0.37812    1.000
    Si1786   Si       0.48793    0.20992    0.38598    1.000
    N1787    N        0.43680    0.20170    0.48010    1.000
    Si1788   Si       0.43407    0.20380    0.43613    1.000
    N1789    N        0.30027    0.20020    0.55301    1.000
    N1790    N        0.26260    0.23891    0.50928    1.000
    Si1791   Si       0.30848    0.19176    0.59370    1.000
    N1792    N        0.30627    0.22792    0.61653    1.000
    Si1793   Si       0.29681    0.24098    0.53704    1.000
    N1794    N        0.45686    0.22431    0.53703    1.000
    Si1795   Si       0.41361    0.23711    0.54635    1.000
    N1796    N        0.40270    0.19422    0.55031    1.000
    Si1797   Si       0.48996    0.19747    0.54970    1.000
    N1798    N        0.28833    0.21885    0.68274    1.000
    Si1799   Si       0.27292    0.21166    0.64206    1.000
    N1800    N        0.33754    0.19588    0.73888    1.000
    Si1801   Si       0.31684    0.18938    0.70040    1.000
    N1802    N        0.34652    0.18552    0.67002    1.000
    Si1803   Si       0.38094    0.21354    0.66761    1.000
    Si1804   Si       0.45543    0.21163    0.66525    1.000
    N1805    N        0.41758    0.19020    0.66719    1.000
    Si1806   Si       0.46840    0.20900    0.74475    1.000
    N1807    N        0.46875    0.22539    0.70301    1.000
    N1808    N        0.37793    0.23079    0.62644    1.000
    N1809    N        0.45073    0.24482    0.63472    1.000
    N1810    N        0.39010    0.24314    0.70028    1.000
    Si1811   Si       0.40375    0.24656    0.74251    1.000
    Si1812   Si       0.25982    0.20825    0.78447    1.000
    N1813    N        0.29759    0.23477    0.78240    1.000
    Si1814   Si       0.32255    0.22646    0.86604    1.000
    Si1815   Si       0.32923    0.23811    0.75332    1.000
    N1816    N        0.34508    0.18994    0.86118    1.000
    N1817    N        0.42883    0.21593    0.75885    1.000
    N1818    N        0.39538    0.21758    0.82261    1.000
    Si1819   Si       0.41757    0.19481    0.79399    1.000
    Si1820   Si       0.38743    0.20642    0.86347    1.000
    N1821    N        0.48422    0.22704    0.84665    1.000
    Si1822   Si       0.49248    0.19950    0.81258    1.000
    Si1823   Si       0.29877    0.20836    0.94482    1.000
    N1824    N        0.31355    0.22439    0.90744    1.000
    N1825    N        0.25546    0.20517    0.94675    1.000
    Si1826   Si       0.42411    0.22723    0.92838    1.000
    N1827    N        0.40910    0.23702    0.88833    1.000
    N1828    N        0.45056    0.18856    0.99054    1.000
    N1829    N        0.37142    0.23244    0.99315    1.000
    N1830    N        0.39519    0.19758    0.93909    1.000
    Si1831   Si       0.48353    0.20252    0.88377    1.000
    Si1832   Si       0.37012    0.19245    0.97216    1.000
    N1833    N        0.46382    0.20914    0.92218    1.000
    N1834    N        0.27617    0.27222    0.07519    1.000
    N1835    N        0.32648    0.27325    0.02835    1.000
    Si1836   Si       0.31904    0.26925    0.07049    1.000
    N1837    N        0.25595    0.29607    0.00457    1.000
    N1838    N        0.35034    0.29681    0.08409    1.000
    Si1839   Si       0.25351    0.29685    0.04909    1.000
    Si1840   Si       0.38041    0.27051    0.10166    1.000
    Si1841   Si       0.43365    0.26225    0.07069    1.000
    N1842    N        0.41722    0.29730    0.08766    1.000
    N1843    N        0.43316    0.25009    0.02740    1.000
    N1844    N        0.46790    0.24928    0.09345    1.000
    N1845    N        0.38985    0.29869    0.99354    1.000
    N1846    N        0.24935    0.27127    0.20638    1.000
    N1847    N        0.24747    0.26142    0.13663    1.000
    Si1848   Si       0.27444    0.26665    0.17198    1.000
    N1849    N        0.33665    0.28873    0.22040    1.000
    Si1850   Si       0.33253    0.24657    0.20726    1.000
    N1851    N        0.37690    0.27057    0.14521    1.000
    N1852    N        0.41166    0.28965    0.20264    1.000
    N1853    N        0.47426    0.25697    0.21411    1.000
    Si1854   Si       0.43219    0.25130    0.20205    1.000
    Si1855   Si       0.48455    0.29703    0.22565    1.000
    N1856    N        0.31320    0.28520    0.34332    1.000
    N1857    N        0.35415    0.26126    0.28670    1.000
    N1858    N        0.25756    0.24967    0.31182    1.000
    Si1859   Si       0.35138    0.28631    0.36371    1.000
    Si1860   Si       0.34779    0.29761    0.26184    1.000
    Si1861   Si       0.29506    0.24680    0.33478    1.000
    Si1862   Si       0.39097    0.27947    0.30184    1.000
    N1863    N        0.48449    0.26662    0.31796    1.000
    N1864    N        0.42444    0.25114    0.30523    1.000
    N1865    N        0.38618    0.29835    0.34006    1.000
    Si1866   Si       0.45158    0.24705    0.34130    1.000
    Si1867   Si       0.26914    0.25788    0.40719    1.000
    N1868    N        0.30619    0.27428    0.42296    1.000
    N1869    N        0.35861    0.25046    0.38615    1.000
    Si1870   Si       0.33592    0.24326    0.42325    1.000
    Si1871   Si       0.43923    0.26887    0.40318    1.000
    N1872    N        0.47854    0.25481    0.38887    1.000
    N1873    N        0.47677    0.26915    0.49265    1.000
    Si1874   Si       0.36319    0.26396    0.49251    1.000
    N1875    N        0.43197    0.24828    0.44027    1.000
    N1876    N        0.34357    0.28196    0.59145    1.000
    N1877    N        0.28605    0.27771    0.55992    1.000
    N1878    N        0.33716    0.25934    0.52612    1.000
    Si1879   Si       0.32697    0.29479    0.55132    1.000
    Si1880   Si       0.25160    0.29792    0.57879    1.000
    N1881    N        0.41468    0.26842    0.57620    1.000
    N1882    N        0.47147    0.29606    0.55382    1.000
    N1883    N        0.40451    0.25550    0.50814    1.000
    Si1884   Si       0.48268    0.25953    0.53673    1.000
    Si1885   Si       0.41096    0.25732    0.61836    1.000
    Si1886   Si       0.34034    0.25330    0.62428    1.000
    N1887    N        0.31228    0.27316    0.73015    1.000
    Si1888   Si       0.30212    0.26161    0.68976    1.000
    N1889    N        0.33872    0.26470    0.66722    1.000
    N1890    N        0.27214    0.28859    0.67869    1.000
    N1891    N        0.47934    0.29036    0.67360    1.000
    Si1892   Si       0.37524    0.28043    0.68171    1.000
    N1893    N        0.39854    0.28947    0.64572    1.000
    Si1894   Si       0.47243    0.28434    0.63232    1.000
    Si1895   Si       0.29261    0.27025    0.80931    1.000
    N1896    N        0.33134    0.29195    0.80447    1.000
    N1897    N        0.35798    0.25343    0.85914    1.000
    N1898    N        0.29385    0.25456    0.84937    1.000
    N1899    N        0.25838    0.29789    0.80070    1.000
    Si1900   Si       0.36871    0.25304    0.81408    1.000
    N1901    N        0.36692    0.25166    0.76809    1.000
    Si1902   Si       0.38179    0.29636    0.77305    1.000
    N1903    N        0.39846    0.28516    0.81248    1.000
    N1904    N        0.45856    0.29707    0.85093    1.000
    N1905    N        0.41632    0.28775    0.74765    1.000
    Si1906   Si       0.26831    0.27348    0.87843    1.000
    N1907    N        0.36152    0.28308    0.92511    1.000
    N1908    N        0.29735    0.28816    0.90781    1.000
    Si1909   Si       0.32333    0.26226    0.92909    1.000
    N1910    N        0.30808    0.24428    0.96756    1.000
    Si1911   Si       0.38302    0.27422    0.88843    1.000
    Si1912   Si       0.40636    0.25814    0.99416    1.000
    N1913    N        0.42788    0.25918    0.95626    1.000
    Si1914   Si       0.46208    0.28997    0.95442    1.000
    N1915    N        0.48292    0.30013    0.91636    1.000
    N1916    N        0.34614    0.33875    0.03245    1.000
    N1917    N        0.30891    0.34513    0.10496    1.000
    N1918    N        0.26021    0.33931    0.05848    1.000
    Si1919   Si       0.34294    0.34098    0.07650    1.000
    Si1920   Si       0.26862    0.35670    0.09972    1.000
    Si1921   Si       0.35044    0.30412    0.00870    1.000
    N1922    N        0.46585    0.32467    0.03044    1.000
    Si1923   Si       0.43967    0.32866    0.10706    1.000
    N1924    N        0.48023    0.32102    0.11484    1.000
    N1925    N        0.43397    0.36494    0.07818    1.000
    N1926    N        0.35337    0.33089    0.16536    1.000
    Si1927   Si       0.25107    0.33067    0.17102    1.000
    Si1928   Si       0.32349    0.32203    0.19493    1.000
    N1929    N        0.31855    0.35613    0.22099    1.000
    N1930    N        0.28851    0.30943    0.17291    1.000
    Si1931   Si       0.33847    0.35880    0.13641    1.000
    N1932    N        0.25068    0.36209    0.14056    1.000
    Si1933   Si       0.39011    0.30520    0.16785    1.000
    N1934    N        0.42273    0.32924    0.14899    1.000
    N1935    N        0.42917    0.35319    0.21800    1.000
    Si1936   Si       0.44757    0.34807    0.17891    1.000
    N1937    N        0.48199    0.32143    0.18919    1.000
    Si1938   Si       0.42157    0.31734    0.23908    1.000
    N1939    N        0.31918    0.32204    0.28227    1.000
    N1940    N        0.25560    0.31505    0.31709    1.000
    Si1941   Si       0.29850    0.32077    0.32225    1.000
    Si1942   Si       0.30843    0.35868    0.26211    1.000
    Si1943   Si       0.24158    0.35349    0.30312    1.000
    Si1944   Si       0.41671    0.32372    0.36103    1.000
    N1945    N        0.45173    0.32932    0.33343    1.000
    N1946    N        0.39034    0.30961    0.26647    1.000
    Si1947   Si       0.47359    0.30609    0.30254    1.000
    N1948    N        0.39244    0.35990    0.36808    1.000
    N1949    N        0.46019    0.30749    0.25921    1.000
    Si1950   Si       0.30826    0.31740    0.41958    1.000
    N1951    N        0.31327    0.33749    0.45645    1.000
    Si1952   Si       0.35155    0.33898    0.47805    1.000
    N1953    N        0.34342    0.31920    0.39305    1.000
    N1954    N        0.27385    0.33622    0.39839    1.000
    Si1955   Si       0.36333    0.35740    0.39812    1.000
    Si1956   Si       0.40493    0.32040    0.44239    1.000
    Si1957   Si       0.48249    0.30792    0.47646    1.000
    N1958    N        0.43970    0.31986    0.46978    1.000
    N1959    N        0.38181    0.35850    0.43957    1.000
    N1960    N        0.42241    0.30790    0.40369    1.000
    N1961    N        0.37312    0.30048    0.46989    1.000
    N1962    N        0.31522    0.33933    0.57705    1.000
    Si1963   Si       0.34204    0.32297    0.60697    1.000
    N1964    N        0.33837    0.32478    0.51880    1.000
    N1965    N        0.24742    0.33276    0.55365    1.000
    N1966    N        0.25072    0.31434    0.61947    1.000
    N1967    N        0.48847    0.33999    0.50974    1.000
    N1968    N        0.42005    0.33942    0.54340    1.000
    N1969    N        0.38248    0.33875    0.60197    1.000
    Si1970   Si       0.44197    0.34537    0.50568    1.000
    N1971    N        0.44509    0.31243    0.61160    1.000
    Si1972   Si       0.43258    0.30581    0.57011    1.000
    Si1973   Si       0.34025    0.34678    0.67706    1.000
    N1974    N        0.32148    0.32914    0.64338    1.000
    Si1975   Si       0.28138    0.32256    0.65072    1.000
    N1976    N        0.31111    0.34315    0.70889    1.000
    N1977    N        0.25718    0.31771    0.73184    1.000
    Si1978   Si       0.26712    0.35756    0.70873    1.000
    Si1979   Si       0.29999    0.31509    0.73984    1.000
    Si1980   Si       0.41263    0.32701    0.63278    1.000
    Si1981   Si       0.41236    0.35077    0.70074    1.000
    N1982    N        0.42739    0.35586    0.66079    1.000
    Si1983   Si       0.48433    0.32812    0.69375    1.000
    N1984    N        0.45008    0.33685    0.71816    1.000
    N1985    N        0.37673    0.32607    0.69238    1.000
    Si1986   Si       0.33399    0.33425    0.79795    1.000
    Si1987   Si       0.25936    0.34180    0.79435    1.000
    N1988    N        0.30117    0.34491    0.77326    1.000
    N1989    N        0.36851    0.33603    0.77012    1.000
    N1990    N        0.45933    0.33167    0.78760    1.000
    N1991    N        0.41230    0.35144    0.82612    1.000
    Si1992   Si       0.41959    0.31119    0.83712    1.000
    Si1993   Si       0.45319    0.30914    0.75227    1.000
    Si1994   Si       0.28452    0.32152    0.98191    1.000
    N1995    N        0.26538    0.33764    0.94598    1.000
    Si1996   Si       0.28791    0.33043    0.90752    1.000
    Si1997   Si       0.34960    0.32445    0.93949    1.000
    N1998    N        0.32523    0.34998    0.91281    1.000
    N1999    N        0.32626    0.31691    0.97416    1.000
    N2000    N        0.24813    0.31625    0.88589    1.000
    N2001    N        0.44889    0.35443    0.90160    1.000
    Si2002   Si       0.40832    0.33509    0.97553    1.000
    Si2003   Si       0.47414    0.32700    0.87932    1.000
    Si2004   Si       0.40560    0.34868    0.89768    1.000
    N2005    N        0.40201    0.31044    0.87739    1.000
    N2006    N        0.38851    0.34526    0.93861    1.000
    N2007    N        0.44955    0.32941    0.96195    1.000
    N2008    N        0.31474    0.39184    0.05191    1.000
    N2009    N        0.26052    0.39696    0.08586    1.000
    Si2010   Si       0.27202    0.38348    0.04274    1.000
    Si2011   Si       0.32718    0.37213    0.01418    1.000
    N2012    N        0.25303    0.41786    0.02412    1.000
    N2013    N        0.28636    0.36374    0.00055    1.000
    N2014    N        0.36807    0.36454    0.10393    1.000
    N2015    N        0.37866    0.40962    0.05269    1.000
    Si2016   Si       0.38798    0.40188    0.01063    1.000
    N2017    N        0.47061    0.39344    0.02274    1.000
    Si2018   Si       0.39975    0.38889    0.08666    1.000
    N2019    N        0.41142    0.36613    0.00572    1.000
    Si2020   Si       0.44368    0.36105    0.03516    1.000
    Si2021   Si       0.31705    0.39653    0.19946    1.000
    Si2022   Si       0.24568    0.38011    0.23275    1.000
    N2023    N        0.27403    0.39926    0.20428    1.000
    Si2024   Si       0.27197    0.39528    0.15900    1.000
    N2025    N        0.31545    0.38906    0.15772    1.000
    N2026    N        0.46462    0.41207    0.22946    1.000
    N2027    N        0.40035    0.40669    0.18433    1.000
    Si2028   Si       0.42932    0.41674    0.15433    1.000
    Si2029   Si       0.42392    0.39607    0.22219    1.000
    N2030    N        0.45969    0.38631    0.16194    1.000
    N2031    N        0.33059    0.39177    0.27932    1.000
    Si2032   Si       0.30945    0.40227    0.31468    1.000
    Si2033   Si       0.35938    0.41432    0.25708    1.000
    N2034    N        0.26571    0.36517    0.26965    1.000
    N2035    N        0.30172    0.36341    0.33580    1.000
    N2036    N        0.44784    0.39714    0.36354    1.000
    Si2037   Si       0.40408    0.39930    0.35658    1.000
    N2038    N        0.46533    0.39072    0.29432    1.000
    Si2039   Si       0.46885    0.37059    0.33439    1.000
    N2040    N        0.39989    0.40122    0.25734    1.000
    Si2041   Si       0.42808    0.41317    0.28752    1.000
    N2042    N        0.39896    0.41765    0.31822    1.000
    N2043    N        0.26860    0.41242    0.37702    1.000
    N2044    N        0.32815    0.38433    0.39543    1.000
    Si2045   Si       0.28872    0.37286    0.37856    1.000
    N2046    N        0.35716    0.38407    0.49347    1.000
    N2047    N        0.24167    0.40879    0.48876    1.000
    Si2048   Si       0.39210    0.38964    0.46820    1.000
    N2049    N        0.42911    0.38466    0.48843    1.000
    N2050    N        0.26484    0.38894    0.59994    1.000
    N2051    N        0.29238    0.38179    0.53675    1.000
    N2052    N        0.36118    0.39039    0.55460    1.000
    Si2053   Si       0.27729    0.41597    0.51425    1.000
    Si2054   Si       0.35085    0.42030    0.52228    1.000
    Si2055   Si       0.27617    0.35949    0.57127    1.000
    Si2056   Si       0.33047    0.36261    0.53935    1.000
    N2057    N        0.41496    0.39590    0.58100    1.000
    Si2058   Si       0.45127    0.41666    0.58689    1.000
    N2059    N        0.48152    0.41177    0.55558    1.000
    Si2060   Si       0.39405    0.36212    0.56797    1.000
    Si2061   Si       0.27233    0.39886    0.64086    1.000
    N2062    N        0.35276    0.38898    0.67328    1.000
    N2063    N        0.26701    0.39150    0.73359    1.000
    N2064    N        0.34253    0.39923    0.74827    1.000
    N2065    N        0.26885    0.36186    0.66456    1.000
    Si2066   Si       0.36483    0.40868    0.70974    1.000
    N2067    N        0.46804    0.40712    0.62429    1.000
    Si2068   Si       0.46341    0.38334    0.65947    1.000
    Si2069   Si       0.43964    0.40487    0.73335    1.000
    N2070    N        0.46407    0.40172    0.69824    1.000
    N2071    N        0.40022    0.38591    0.72392    1.000
    Si2072   Si       0.30102    0.39002    0.83324    1.000
    Si2073   Si       0.30191    0.38932    0.75988    1.000
    N2074    N        0.29496    0.41303    0.79786    1.000
    N2075    N        0.33890    0.36817    0.82344    1.000
    N2076    N        0.31098    0.40672    0.87188    1.000
    N2077    N        0.26548    0.36275    0.83525    1.000
    Si2078   Si       0.37602    0.37743    0.76353    1.000
    N2079    N        0.45616    0.39807    0.83470    1.000
    N2080    N        0.46305    0.39725    0.76935    1.000
    N2081    N        0.39885    0.40016    0.79336    1.000
    Si2082   Si       0.44233    0.37257    0.80033    1.000
    Si2083   Si       0.38091    0.38241    0.83210    1.000
    Si2084   Si       0.26884    0.37993    0.96307    1.000
    Si2085   Si       0.34224    0.38562    0.89499    1.000
    N2086    N        0.35083    0.39876    0.98976    1.000
    N2087    N        0.29373    0.41560    0.95204    1.000
    N2088    N        0.35652    0.41906    0.91940    1.000
    Si2089   Si       0.45835    0.41838    0.98890    1.000
    N2090    N        0.45748    0.40404    0.94739    1.000
    Si2091   Si       0.46816    0.36248    0.93801    1.000
    N2092    N        0.38029    0.37523    0.87585    1.000
    N2093    N        0.34671    0.45523    0.08981    1.000
    N2094    N        0.31419    0.45508    0.03012    1.000
    Si2095   Si       0.27155    0.45748    0.01829    1.000
    Si2096   Si       0.33843    0.42889    0.05724    1.000
    Si2097   Si       0.41024    0.47593    0.00949    1.000
    Si2098   Si       0.48069    0.47317    0.02816    1.000
    Si2099   Si       0.38228    0.45244    0.11752    1.000
    N2100    N        0.41578    0.43246    0.99791    1.000
    N2101    N        0.46549    0.48124    0.10974    1.000
    N2102    N        0.41104    0.42051    0.11592    1.000
    Si2103   Si       0.23852    0.46428    0.16788    1.000
    N2104    N        0.25108    0.43069    0.14419    1.000
    N2105    N        0.34450    0.42456    0.21741    1.000
    N2106    N        0.36908    0.45959    0.15733    1.000
    Si2107   Si       0.47847    0.44168    0.20181    1.000
    N2108    N        0.40435    0.46282    0.21801    1.000
    N2109    N        0.45498    0.45086    0.16899    1.000
    Si2110   Si       0.37686    0.44259    0.19376    1.000
    N2111    N        0.48398    0.47994    0.22255    1.000
    Si2112   Si       0.26877    0.46779    0.28913    1.000
    N2113    N        0.27449    0.42911    0.30799    1.000
    N2114    N        0.29169    0.47253    0.25167    1.000
    N2115    N        0.33570    0.42755    0.33828    1.000
    Si2116   Si       0.24557    0.41860    0.33940    1.000
    N2117    N        0.36421    0.45595    0.27302    1.000
    Si2118   Si       0.36694    0.44917    0.31774    1.000
    Si2119   Si       0.40260    0.47271    0.25864    1.000
    N2120    N        0.43750    0.45485    0.27690    1.000
    Si2121   Si       0.47693    0.46915    0.26468    1.000
    N2122    N        0.26150    0.45465    0.43776    1.000
    Si2123   Si       0.27570    0.45170    0.39562    1.000
    N2124    N        0.31902    0.45397    0.40174    1.000
    Si2125   Si       0.33998    0.42203    0.38091    1.000
    Si2126   Si       0.40013    0.45172    0.41284    1.000
    N2127    N        0.43631    0.46629    0.39041    1.000
    N2128    N        0.38284    0.42438    0.38524    1.000
    Si2129   Si       0.46209    0.42956    0.39105    1.000
    N2130    N        0.40930    0.42685    0.44856    1.000
    N2131    N        0.47132    0.41885    0.43123    1.000
    Si2132   Si       0.44783    0.41856    0.46844    1.000
    N2133    N        0.25488    0.45701    0.60357    1.000
    N2134    N        0.25021    0.43906    0.54254    1.000
    N2135    N        0.31467    0.43985    0.51027    1.000
    Si2136   Si       0.25737    0.47686    0.56605    1.000
    Si2137   Si       0.39083    0.43335    0.57685    1.000
    N2138    N        0.37253    0.45227    0.54018    1.000
    N2139    N        0.43048    0.45444    0.58023    1.000
    N2140    N        0.36918    0.44387    0.61644    1.000
    N2141    N        0.45558    0.45015    0.49980    1.000
    Si2142   Si       0.34747    0.42619    0.64985    1.000
    N2143    N        0.30404    0.43035    0.64275    1.000
    Si2144   Si       0.28520    0.46846    0.63445    1.000
    N2145    N        0.36127    0.44691    0.68869    1.000
    N2146    N        0.42774    0.44613    0.74277    1.000
    N2147    N        0.47981    0.46961    0.69657    1.000
    N2148    N        0.48680    0.47240    0.62460    1.000
    Si2149   Si       0.29766    0.45790    0.79838    1.000
    N2150    N        0.31942    0.46446    0.83525    1.000
    N2151    N        0.25478    0.44232    0.85963    1.000
    N2152    N        0.25723    0.47389    0.79668    1.000
    Si2153   Si       0.29830    0.44697    0.87008    1.000
    Si2154   Si       0.36255    0.46904    0.83123    1.000
    Si2155   Si       0.41235    0.44231    0.78300    1.000
    N2156    N        0.43566    0.45760    0.81582    1.000
    N2157    N        0.37541    0.46769    0.78892    1.000
    N2158    N        0.38127    0.43393    0.85042    1.000
    Si2159   Si       0.42585    0.42750    0.84647    1.000
    Si2160   Si       0.47208    0.47739    0.82080    1.000
    Si2161   Si       0.27295    0.45299    0.93949    1.000
    N2162    N        0.34202    0.46707    0.96863    1.000
    N2163    N        0.29687    0.47242    0.90722    1.000
    N2164    N        0.26946    0.47406    0.97696    1.000
    Si2165   Si       0.33529    0.42608    0.95846    1.000
    Si2166   Si       0.46798    0.42980    0.91028    1.000
    N2167    N        0.38606    0.48063    0.90897    1.000
    N2168    N        0.48379    0.45305    0.99006    1.000
    N2169    N        0.43107    0.43289    0.88935    1.000
    Si2170   Si       0.38692    0.43835    0.89511    1.000
    N2171    N        0.47961    0.46944    0.92208    1.000
    N2172    N        0.32061    0.52608    0.01264    1.000
    N2173    N        0.26100    0.49648    0.03682    1.000
    Si2174   Si       0.27885    0.53202    0.02028    1.000
    N2175    N        0.34888    0.53280    0.07262    1.000
    Si2176   Si       0.33699    0.48382    0.00839    1.000
    Si2177   Si       0.36366    0.49152    0.07380    1.000
    Si2178   Si       0.43782    0.49805    0.08029    1.000
    N2179    N        0.39909    0.49176    0.10135    1.000
    N2180    N        0.37313    0.48480    0.03084    1.000
    N2181    N        0.44928    0.53835    0.07141    1.000
    N2182    N        0.44056    0.48019    0.04248    1.000
    Si2183   Si       0.27726    0.53168    0.15728    1.000
    N2184    N        0.27063    0.49337    0.17774    1.000
    Si2185   Si       0.26563    0.48803    0.22043    1.000
    N2186    N        0.34169    0.49960    0.21580    1.000
    N2187    N        0.35291    0.52930    0.14244    1.000
    Si2188   Si       0.34410    0.53005    0.18529    1.000
    N2189    N        0.24557    0.52202    0.24112    1.000
    N2190    N        0.42318    0.51938    0.16167    1.000
    Si2191   Si       0.49003    0.52085    0.20644    1.000
    Si2192   Si       0.45641    0.49297    0.15116    1.000
    Si2193   Si       0.39324    0.52634    0.13061    1.000
    N2194    N        0.33766    0.51964    0.28262    1.000
    N2195    N        0.27373    0.50690    0.30978    1.000
    Si2196   Si       0.33306    0.48398    0.25576    1.000
    Si2197   Si       0.37676    0.52085    0.30214    1.000
    N2198    N        0.40648    0.51438    0.27000    1.000
    N2199    N        0.47554    0.50878    0.28272    1.000
    N2200    N        0.45169    0.52709    0.34324    1.000
    N2201    N        0.37968    0.48884    0.33045    1.000
    Si2202   Si       0.44403    0.53549    0.26504    1.000
    N2203    N        0.26658    0.49016    0.37575    1.000
    Si2204   Si       0.34230    0.53131    0.47634    1.000
    Si2205   Si       0.26124    0.52854    0.39518    1.000
    Si2206   Si       0.33745    0.49052    0.41687    1.000
    N2207    N        0.26066    0.52534    0.43784    1.000
    N2208    N        0.32146    0.49966    0.45627    1.000
    N2209    N        0.32932    0.52278    0.39098    1.000
    Si2210   Si       0.27972    0.49068    0.45705    1.000
    N2211    N        0.42986    0.50970    0.46368    1.000
    N2212    N        0.37912    0.48572    0.42279    1.000
    Si2213   Si       0.44608    0.51014    0.38153    1.000
    Si2214   Si       0.39998    0.52311    0.43414    1.000
    Si2215   Si       0.32090    0.51355    0.58607    1.000
    N2216    N        0.34466    0.51292    0.51994    1.000
    N2217    N        0.29815    0.48648    0.56062    1.000
    N2218    N        0.27073    0.49523    0.49866    1.000
    Si2219   Si       0.30902    0.48431    0.51840    1.000
    N2220    N        0.36295    0.50606    0.58377    1.000
    Si2221   Si       0.45282    0.53419    0.54531    1.000
    Si2222   Si       0.45488    0.48596    0.59794    1.000
    N2223    N        0.47324    0.51798    0.50810    1.000
    N2224    N        0.47306    0.52248    0.58182    1.000
    N2225    N        0.41723    0.50819    0.53459    1.000
    Si2226   Si       0.37742    0.49506    0.54264    1.000
    Si2227   Si       0.37808    0.48639    0.61906    1.000
    Si2228   Si       0.43919    0.49003    0.50065    1.000
    N2229    N        0.30495    0.50573    0.62641    1.000
    Si2230   Si       0.29752    0.50515    0.73461    1.000
    N2231    N        0.31719    0.49945    0.69656    1.000
    Si2232   Si       0.32554    0.52171    0.66112    1.000
    N2233    N        0.25621    0.48948    0.72824    1.000
    Si2234   Si       0.24487    0.50801    0.69071    1.000
    N2235    N        0.36483    0.50581    0.65523    1.000
    N2236    N        0.25106    0.48261    0.65827    1.000
    N2237    N        0.42041    0.50107    0.62057    1.000
    Si2238   Si       0.42504    0.51727    0.65896    1.000
    N2239    N        0.37506    0.51139    0.73180    1.000
    N2240    N        0.41652    0.48690    0.68712    1.000
    Si2241   Si       0.36985    0.48815    0.69424    1.000
    N2242    N        0.44219    0.51697    0.74023    1.000
    N2243    N        0.47093    0.52824    0.65735    1.000
    Si2244   Si       0.44537    0.47872    0.71963    1.000
    N2245    N        0.26765    0.50976    0.85984    1.000
    Si2246   Si       0.35565    0.49880    0.76675    1.000
    N2247    N        0.35282    0.53411    0.79159    1.000
    Si2248   Si       0.24505    0.47833    0.83906    1.000
    N2249    N        0.31556    0.48264    0.76634    1.000
    N2250    N        0.37907    0.50470    0.84644    1.000
    N2251    N        0.47193    0.51833    0.80817    1.000
    Si2252   Si       0.47558    0.53003    0.76556    1.000
    Si2253   Si       0.29258    0.51636    0.89929    1.000
    Si2254   Si       0.24534    0.50739    0.96435    1.000
    N2255    N        0.26526    0.52737    0.93119    1.000
    N2256    N        0.36320    0.53454    0.95064    1.000
    N2257    N        0.44829    0.51403    0.87216    1.000
    Si2258   Si       0.48418    0.49725    0.88806    1.000
    Si2259   Si       0.40455    0.50981    0.88070    1.000
    N2260    N        0.40783    0.49576    0.97152    1.000
    Si2261   Si       0.37127    0.49176    0.94879    1.000
    Si2262   Si       0.40096    0.53969    0.97410    1.000
    N2263    N        0.27780    0.56125    0.05285    1.000
    Si2264   Si       0.26154    0.55553    0.09237    1.000
    Si2265   Si       0.33318    0.54953    0.11127    1.000
    N2266    N        0.33579    0.59032    0.03114    1.000
    Si2267   Si       0.35171    0.55027    0.03266    1.000
    N2268    N        0.33544    0.59374    0.10606    1.000
    N2269    N        0.29193    0.53635    0.11611    1.000
    N2270    N        0.24100    0.59351    0.10052    1.000
    Si2271   Si       0.43482    0.57212    0.09318    1.000
    N2272    N        0.46539    0.57726    0.01269    1.000
    N2273    N        0.39181    0.55196    0.01464    1.000
    Si2274   Si       0.42089    0.58584    0.02282    1.000
    Si2275   Si       0.48293    0.54666    0.04299    1.000
    N2276    N        0.46924    0.58465    0.11586    1.000
    N2277    N        0.41747    0.59696    0.06415    1.000
    N2278    N        0.25474    0.58393    0.21194    1.000
    N2279    N        0.30618    0.55130    0.18428    1.000
    Si2280   Si       0.29262    0.59143    0.19235    1.000
    N2281    N        0.23830    0.55091    0.15536    1.000
    Si2282   Si       0.41994    0.55044    0.19372    1.000
    N2283    N        0.40302    0.56648    0.11999    1.000
    N2284    N        0.45144    0.53974    0.22258    1.000
    N2285    N        0.37761    0.55351    0.20268    1.000
    N2286    N        0.42555    0.59348    0.17634    1.000
    N2287    N        0.28467    0.57116    0.27523    1.000
    N2288    N        0.32063    0.56387    0.33383    1.000
    Si2289   Si       0.35621    0.58898    0.32317    1.000
    Si2290   Si       0.25075    0.56385    0.24887    1.000
    Si2291   Si       0.30295    0.53981    0.30122    1.000
    N2292    N        0.44905    0.56928    0.29044    1.000
    N2293    N        0.38650    0.55823    0.31892    1.000
    Si2294   Si       0.42713    0.56122    0.32967    1.000
    N2295    N        0.42247    0.59360    0.35977    1.000
    Si2296   Si       0.31973    0.56213    0.37693    1.000
    N2297    N        0.27799    0.56508    0.38243    1.000
    N2298    N        0.25772    0.58175    0.48105    1.000
    N2299    N        0.34378    0.59172    0.39654    1.000
    N2300    N        0.31836    0.56480    0.49420    1.000
    N2301    N        0.37060    0.55037    0.45010    1.000
    Si2302   Si       0.36567    0.59072    0.43472    1.000
    Si2303   Si       0.43178    0.58367    0.40096    1.000
    Si2304   Si       0.45975    0.54152    0.47113    1.000
    N2305    N        0.43177    0.57216    0.48660    1.000
    N2306    N        0.42525    0.54267    0.40455    1.000
    N2307    N        0.31229    0.55361    0.56942    1.000
    Si2308   Si       0.33498    0.55524    0.53246    1.000
    Si2309   Si       0.29107    0.59021    0.58553    1.000
    N2310    N        0.25723    0.59482    0.55952    1.000
    N2311    N        0.37202    0.57847    0.53521    1.000
    N2312    N        0.43812    0.57330    0.55136    1.000
    Si2313   Si       0.47607    0.55064    0.61367    1.000
    Si2314   Si       0.41003    0.58726    0.52155    1.000
    N2315    N        0.44185    0.57622    0.62034    1.000
    N2316    N        0.27204    0.58191    0.62439    1.000
    Si2317   Si       0.27158    0.57119    0.72785    1.000
    N2318    N        0.26459    0.54976    0.68910    1.000
    Si2319   Si       0.28950    0.58830    0.66538    1.000
    N2320    N        0.32753    0.56327    0.66662    1.000
    Si2321   Si       0.35452    0.59589    0.67165    1.000
    Si2322   Si       0.42715    0.58656    0.65914    1.000
    N2323    N        0.41364    0.55315    0.68481    1.000
    Si2324   Si       0.40895    0.53966    0.72592    1.000
    Si2325   Si       0.31990    0.55863    0.78570    1.000
    Si2326   Si       0.25830    0.54971    0.84222    1.000
    N2327    N        0.35446    0.58057    0.84138    1.000
    N2328    N        0.29606    0.55942    0.82184    1.000
    Si2329   Si       0.31542    0.57907    0.85936    1.000
    N2330    N        0.29864    0.54583    0.74939    1.000
    N2331    N        0.47679    0.57451    0.85068    1.000
    N2332    N        0.41855    0.55923    0.81805    1.000
    Si2333   Si       0.42770    0.58591    0.78235    1.000
    N2334    N        0.46855    0.57262    0.76728    1.000
    Si2335   Si       0.37637    0.54512    0.82676    1.000
    Si2336   Si       0.45278    0.54230    0.83861    1.000
    N2337    N        0.39932    0.57646    0.74622    1.000
    N2338    N        0.27053    0.57784    0.87412    1.000
    Si2339   Si       0.25873    0.56673    0.94901    1.000
    Si2340   Si       0.35848    0.55764    0.91366    1.000
    N2341    N        0.25318    0.54503    0.98865    1.000
    N2342    N        0.32267    0.54616    0.89010    1.000
    Si2343   Si       0.46915    0.57345    0.96785    1.000
    N2344    N        0.42934    0.56625    0.95318    1.000
    Si2345   Si       0.41364    0.58238    0.91708    1.000
    N2346    N        0.39630    0.55067    0.89316    1.000
    N2347    N        0.37355    0.59984    0.92344    1.000
    N2348    N        0.29007    0.63083    0.06491    1.000
    Si2349   Si       0.32910    0.61225    0.06836    1.000
    N2350    N        0.28351    0.63245    0.00634    1.000
    Si2351   Si       0.27460    0.60040    0.03515    1.000
    Si2352   Si       0.36011    0.62436    0.01525    1.000
    N2353    N        0.36205    0.64005    0.05769    1.000
    Si2354   Si       0.40003    0.63415    0.07816    1.000
    N2355    N        0.40118    0.61962    0.00631    1.000
    Si2356   Si       0.48434    0.61535    0.01682    1.000
    N2357    N        0.48657    0.62313    0.05871    1.000
    N2358    N        0.40359    0.63418    0.12143    1.000
    N2359    N        0.28834    0.61019    0.15480    1.000
    Si2360   Si       0.32775    0.62122    0.13970    1.000
    Si2361   Si       0.25020    0.61746    0.13506    1.000
    N2362    N        0.35766    0.60880    0.16780    1.000
    N2363    N        0.32020    0.60519    0.22337    1.000
    Si2364   Si       0.35975    0.59438    0.20975    1.000
    Si2365   Si       0.39334    0.60060    0.14493    1.000
    Si2366   Si       0.42323    0.62338    0.20788    1.000
    N2367    N        0.45440    0.61433    0.23790    1.000
    Si2368   Si       0.46689    0.59984    0.15615    1.000
    N2369    N        0.46715    0.64276    0.14498    1.000
    N2370    N        0.38927    0.61839    0.23144    1.000
    N2371    N        0.29344    0.62610    0.35537    1.000
    N2372    N        0.29886    0.64350    0.28477    1.000
    Si2373   Si       0.30968    0.60687    0.26596    1.000
    N2374    N        0.34963    0.60643    0.28439    1.000
    Si2375   Si       0.25928    0.59651    0.36083    1.000
    Si2376   Si       0.28610    0.65464    0.32462    1.000
    N2377    N        0.36558    0.62636    0.34326    1.000
    Si2378   Si       0.40920    0.62908    0.34111    1.000
    N2379    N        0.41614    0.62603    0.29710    1.000
    Si2380   Si       0.38331    0.63435    0.27196    1.000
    Si2381   Si       0.45424    0.61139    0.28013    1.000
    Si2382   Si       0.33301    0.62903    0.37254    1.000
    Si2383   Si       0.24604    0.63285    0.42368    1.000
    N2384    N        0.28649    0.62250    0.43614    1.000
    N2385    N        0.34203    0.61763    0.46114    1.000
    Si2386   Si       0.32245    0.64945    0.43913    1.000
    Si2387   Si       0.30037    0.60052    0.47375    1.000
    N2388    N        0.46920    0.63321    0.45982    1.000
    N2389    N        0.40824    0.60370    0.43353    1.000
    N2390    N        0.46913    0.61008    0.40039    1.000
    Si2391   Si       0.43107    0.61122    0.46936    1.000
    Si2392   Si       0.47122    0.64769    0.38044    1.000
    N2393    N        0.31924    0.62351    0.58906    1.000
    Si2394   Si       0.25777    0.60336    0.51779    1.000
    Si2395   Si       0.35824    0.63922    0.57821    1.000
    N2396    N        0.28968    0.63070    0.50724    1.000
    N2397    N        0.39979    0.62498    0.57260    1.000
    N2398    N        0.46755    0.62817    0.57910    1.000
    N2399    N        0.41506    0.62757    0.50566    1.000
    Si2400   Si       0.43398    0.59957    0.58451    1.000
    Si2401   Si       0.40325    0.65395    0.53747    1.000
    Si2402   Si       0.31721    0.65061    0.62560    1.000
    N2403    N        0.32172    0.62480    0.65910    1.000
    N2404    N        0.28587    0.60792    0.70712    1.000
    Si2405   Si       0.31836    0.63831    0.70494    1.000
    N2406    N        0.35251    0.61086    0.71399    1.000
    N2407    N        0.46505    0.60028    0.67795    1.000
    N2408    N        0.39156    0.61112    0.65352    1.000
    Si2409   Si       0.39046    0.65350    0.64284    1.000
    Si2410   Si       0.48055    0.63758    0.69195    1.000
    Si2411   Si       0.30411    0.63073    0.77855    1.000
    N2412    N        0.25907    0.63950    0.77096    1.000
    N2413    N        0.32207    0.64870    0.81351    1.000
    Si2414   Si       0.35652    0.62225    0.82081    1.000
    N2415    N        0.33300    0.59854    0.77904    1.000
    Si2416   Si       0.36845    0.60782    0.75533    1.000
    N2417    N        0.39044    0.61586    0.79441    1.000
    N2418    N        0.44950    0.62961    0.77587    1.000
    Si2419   Si       0.41252    0.65035    0.77825    1.000
    N2420    N        0.37632    0.64828    0.85211    1.000
    N2421    N        0.44752    0.64560    0.84685    1.000
    Si2422   Si       0.46791    0.61401    0.86748    1.000
    Si2423   Si       0.49034    0.61279    0.76905    1.000
    N2424    N        0.25231    0.64233    0.90221    1.000
    N2425    N        0.31670    0.62164    0.87596    1.000
    Si2426   Si       0.30169    0.63276    0.96791    1.000
    Si2427   Si       0.28120    0.61128    0.90123    1.000
    N2428    N        0.34386    0.63355    0.97572    1.000
    N2429    N        0.28849    0.59664    0.94311    1.000
    N2430    N        0.41468    0.64798    0.95285    1.000
    Si2431   Si       0.37388    0.63835    0.94262    1.000
    N2432    N        0.44024    0.61112    0.90092    1.000
    Si2433   Si       0.44989    0.64020    0.93162    1.000
    N2434    N        0.47907    0.61636    0.95524    1.000
    N2435    N        0.28906    0.69388    0.07597    1.000
    N2436    N        0.30971    0.69522    0.01570    1.000
    Si2437   Si       0.28263    0.66492    0.03611    1.000
    Si2438   Si       0.28744    0.67736    0.11591    1.000
    N2439    N        0.24311    0.68312    0.02889    1.000
    N2440    N        0.35670    0.71216    0.05807    1.000
    Si2441   Si       0.24990    0.71100    0.05995    1.000
    Si2442   Si       0.39791    0.70139    0.04596    1.000
    N2443    N        0.42194    0.66822    0.06114    1.000
    N2444    N        0.40863    0.69814    0.00273    1.000
    N2445    N        0.48969    0.67871    0.08816    1.000
    Si2446   Si       0.46446    0.65995    0.05835    1.000
    N2447    N        0.46428    0.65595    0.01136    1.000
    N2448    N        0.24950    0.65826    0.12197    1.000
    Si2449   Si       0.33030    0.69796    0.15417    1.000
    N2450    N        0.32521    0.66178    0.13144    1.000
    N2451    N        0.26530    0.67021    0.21596    1.000
    Si2452   Si       0.29151    0.70472    0.21968    1.000
    N2453    N        0.32690    0.69615    0.19457    1.000
    N2454    N        0.28893    0.70918    0.14420    1.000
    N2455    N        0.41763    0.66058    0.18464    1.000
    Si2456   Si       0.42792    0.66309    0.14272    1.000
    N2457    N        0.47348    0.69820    0.20121    1.000
    Si2458   Si       0.43029    0.69791    0.20592    1.000
    N2459    N        0.42951    0.70100    0.12402    1.000
    N2460    N        0.31791    0.68532    0.32062    1.000
    Si2461   Si       0.32579    0.67889    0.27936    1.000
    N2462    N        0.24698    0.67325    0.32877    1.000
    N2463    N        0.36871    0.67466    0.27140    1.000
    N2464    N        0.30518    0.71235    0.26084    1.000
    N2465    N        0.47155    0.68357    0.29843    1.000
    Si2466   Si       0.44406    0.69651    0.33027    1.000
    Si2467   Si       0.39755    0.70776    0.27479    1.000
    Si2468   Si       0.47585    0.69247    0.25571    1.000
    N2469    N        0.43897    0.65891    0.35313    1.000
    N2470    N        0.43004    0.69439    0.24882    1.000
    N2471    N        0.40747    0.71407    0.31753    1.000
    Si2472   Si       0.33321    0.70769    0.39835    1.000
    N2473    N        0.24422    0.68205    0.48358    1.000
    N2474    N        0.33695    0.66387    0.40097    1.000
    N2475    N        0.31450    0.68208    0.46610    1.000
    N2476    N        0.24929    0.67621    0.41175    1.000
    Si2477   Si       0.28582    0.67409    0.49759    1.000
    N2478    N        0.46323    0.68111    0.40994    1.000
    N2479    N        0.45381    0.69571    0.48508    1.000
    Si2480   Si       0.47463    0.67556    0.45276    1.000
    Si2481   Si       0.34396    0.70321    0.53684    1.000
    N2482    N        0.29999    0.70349    0.52513    1.000
    Si2483   Si       0.26293    0.70847    0.61134    1.000
    N2484    N        0.35805    0.66552    0.61541    1.000
    Si2485   Si       0.36331    0.70841    0.61445    1.000
    N2486    N        0.35990    0.66422    0.54263    1.000
    N2487    N        0.43369    0.68226    0.55322    1.000
    N2488    N        0.47965    0.69128    0.61335    1.000
    Si2489   Si       0.45139    0.66760    0.59061    1.000
    Si2490   Si       0.45128    0.71189    0.52649    1.000
    N2491    N        0.28100    0.67173    0.62592    1.000
    Si2492   Si       0.26948    0.68010    0.66837    1.000
    N2493    N        0.30528    0.67883    0.69228    1.000
    Si2494   Si       0.34440    0.69836    0.68719    1.000
    Si2495   Si       0.26546    0.66560    0.73645    1.000
    N2496    N        0.24376    0.65897    0.69849    1.000
    N2497    N        0.31399    0.65816    0.74740    1.000
    N2498    N        0.44298    0.66235    0.69199    1.000
    Si2499   Si       0.40748    0.67486    0.71299    1.000
    N2500    N        0.42770    0.66433    0.62641    1.000
    N2501    N        0.43156    0.70444    0.73941    1.000
    N2502    N        0.37939    0.67535    0.68027    1.000
    Si2503   Si       0.45850    0.68160    0.65569    1.000
    Si2504   Si       0.30878    0.68823    0.82181    1.000
    N2505    N        0.32404    0.69544    0.86222    1.000
    N2506    N        0.26739    0.70126    0.82606    1.000
    N2507    N        0.33162    0.70952    0.78969    1.000
    Si2508   Si       0.34825    0.68527    0.75648    1.000
    N2509    N        0.25209    0.70493    0.75056    1.000
    N2510    N        0.41305    0.68440    0.80325    1.000
    Si2511   Si       0.41304    0.67009    0.84519    1.000
    N2512    N        0.41600    0.70439    0.87017    1.000
    N2513    N        0.38271    0.65786    0.74763    1.000
    Si2514   Si       0.30441    0.70617    0.97491    1.000
    Si2515   Si       0.25553    0.67868    0.92468    1.000
    N2516    N        0.28920    0.67079    0.95223    1.000
    Si2517   Si       0.34376    0.65809    0.87661    1.000
    N2518    N        0.35999    0.66844    0.91430    1.000
    Si2519   Si       0.36888    0.70951    0.92500    1.000
    N2520    N        0.46659    0.67871    0.91742    1.000
    Si2521   Si       0.44026    0.71308    0.90802    1.000
    Si2522   Si       0.42169    0.65632    0.99669    1.000
    N2523    N        0.27299    0.74346    0.04162    1.000
    N2524    N        0.32103    0.75911    0.08258    1.000
    Si2525   Si       0.25680    0.75888    0.00481    1.000
    Si2526   Si       0.31452    0.72388    0.05433    1.000
    N2527    N        0.42494    0.73450    0.05705    1.000
    Si2528   Si       0.44633    0.73176    0.09633    1.000
    N2529    N        0.48527    0.74398    0.08412    1.000
    Si2530   Si       0.41037    0.77044    0.03652    1.000
    N2531    N        0.42415    0.76086    0.12144    1.000
    Si2532   Si       0.34018    0.76289    0.12128    1.000
    Si2533   Si       0.27532    0.74680    0.16321    1.000
    N2534    N        0.26691    0.74038    0.20887    1.000
    N2535    N        0.36101    0.72785    0.13920    1.000
    Si2536   Si       0.40413    0.72987    0.14488    1.000
    N2537    N        0.40962    0.73243    0.18790    1.000
    Si2538   Si       0.40383    0.76159    0.21649    1.000
    N2539    N        0.30015    0.75411    0.31994    1.000
    Si2540   Si       0.29674    0.75338    0.27621    1.000
    N2541    N        0.35550    0.72532    0.36263    1.000
    Si2542   Si       0.31855    0.72224    0.34129    1.000
    N2543    N        0.48700    0.73450    0.25520    1.000
    Si2544   Si       0.39502    0.73938    0.35123    1.000
    N2545    N        0.46521    0.72651    0.35216    1.000
    N2546    N        0.38908    0.74862    0.25604    1.000
    Si2547   Si       0.47511    0.76378    0.33153    1.000
    Si2548   Si       0.32864    0.72180    0.47104    1.000
    N2549    N        0.29785    0.75147    0.47937    1.000
    Si2550   Si       0.26003    0.74498    0.38854    1.000
    N2551    N        0.25486    0.74246    0.43174    1.000
    N2552    N        0.35012    0.72846    0.43276    1.000
    N2553    N        0.29588    0.72106    0.37907    1.000
    Si2554   Si       0.45527    0.72360    0.39378    1.000
    N2555    N        0.41294    0.73058    0.39208    1.000
    N2556    N        0.40977    0.75913    0.45829    1.000
    Si2557   Si       0.38724    0.74893    0.42173    1.000
    N2558    N        0.47525    0.74402    0.42825    1.000
    Si2559   Si       0.32044    0.75561    0.58236    1.000
    Si2560   Si       0.28869    0.74725    0.52285    1.000
    N2561    N        0.28468    0.74319    0.60225    1.000
    N2562    N        0.24877    0.75469    0.52930    1.000
    N2563    N        0.34644    0.72170    0.57542    1.000
    N2564    N        0.35926    0.72641    0.50113    1.000
    N2565    N        0.31709    0.77221    0.54316    1.000
    Si2566   Si       0.39380    0.75493    0.49882    1.000
    N2567    N        0.42476    0.74577    0.52900    1.000
    N2568    N        0.45531    0.75007    0.59973    1.000
    N2569    N        0.39407    0.73839    0.62053    1.000
    N2570    N        0.48879    0.71747    0.54847    1.000
    Si2571   Si       0.43991    0.76958    0.56262    1.000
    Si2572   Si       0.25122    0.75832    0.66577    1.000
    N2573    N        0.33664    0.72405    0.65023    1.000
    Si2574   Si       0.32664    0.76732    0.64844    1.000
    N2575    N        0.24299    0.76181    0.70934    1.000
    N2576    N        0.24613    0.71580    0.65321    1.000
    N2577    N        0.35702    0.71499    0.72556    1.000
    Si2578   Si       0.43308    0.74768    0.63729    1.000
    N2579    N        0.47328    0.75767    0.72777    1.000
    Si2580   Si       0.37732    0.75177    0.73944    1.000
    N2581    N        0.44878    0.72320    0.66884    1.000
    Si2582   Si       0.46333    0.71877    0.71130    1.000
    Si2583   Si       0.35211    0.74771    0.79368    1.000
    N2584    N        0.35322    0.76067    0.83381    1.000
    Si2585   Si       0.26064    0.72805    0.85982    1.000
    N2586    N        0.24704    0.75850    0.79919    1.000
    N2587    N        0.29239    0.75822    0.85402    1.000
    Si2588   Si       0.33089    0.73899    0.86432    1.000
    N2589    N        0.34194    0.77007    0.75673    1.000
    Si2590   Si       0.24253    0.71605    0.79153    1.000
    N2591    N        0.39412    0.74682    0.78032    1.000
    N2592    N        0.45444    0.73577    0.81175    1.000
    Si2593   Si       0.43417    0.73988    0.85083    1.000
    Si2594   Si       0.42808    0.71866    0.78101    1.000
    N2595    N        0.27624    0.73917    0.97099    1.000
    Si2596   Si       0.26911    0.74953    0.93035    1.000
    Si2597   Si       0.33544    0.76204    0.93709    1.000
    N2598    N        0.35347    0.74274    0.90023    1.000
    N2599    N        0.33903    0.72293    0.95639    1.000
    N2600    N        0.26505    0.71546    0.90322    1.000
    N2601    N        0.45505    0.74574    0.88783    1.000
    N2602    N        0.46746    0.72110    0.97587    1.000
    Si2603   Si       0.42357    0.72918    0.97529    1.000
    N2604    N        0.40836    0.72186    0.93513    1.000
    N2605    N        0.42326    0.76812    0.99474    1.000
    Si2606   Si       0.33295    0.79373    0.06012    1.000
    N2607    N        0.31395    0.80400    0.02084    1.000
    Si2608   Si       0.35318    0.80330    0.00145    1.000
    Si2609   Si       0.27995    0.82676    0.00711    1.000
    N2610    N        0.24541    0.80117    0.01544    1.000
    N2611    N        0.36869    0.78186    0.03523    1.000
    N2612    N        0.46828    0.82248    0.00775    1.000
    N2613    N        0.42662    0.80371    0.06144    1.000
    Si2614   Si       0.41284    0.79833    0.10273    1.000
    N2615    N        0.37047    0.79492    0.11323    1.000
    Si2616   Si       0.45752    0.83222    0.05119    1.000
    N2617    N        0.44340    0.82839    0.11740    1.000
    N2618    N        0.28268    0.81153    0.20337    1.000
    Si2619   Si       0.29710    0.81603    0.16422    1.000
    N2620    N        0.30762    0.77598    0.14994    1.000
    Si2621   Si       0.44184    0.82040    0.19792    1.000
    N2622    N        0.47976    0.81441    0.17484    1.000
    N2623    N        0.37284    0.79235    0.21150    1.000
    N2624    N        0.40789    0.83319    0.17145    1.000
    Si2625   Si       0.48339    0.82722    0.13291    1.000
    Si2626   Si       0.36827    0.83031    0.18996    1.000
    N2627    N        0.44103    0.78384    0.22461    1.000
    N2628    N        0.32728    0.80935    0.35573    1.000
    Si2629   Si       0.28918    0.78673    0.34628    1.000
    N2630    N        0.27417    0.82152    0.32383    1.000
    N2631    N        0.26372    0.78069    0.26711    1.000
    N2632    N        0.32555    0.78137    0.25851    1.000
    Si2633   Si       0.24293    0.80998    0.29514    1.000
    Si2634   Si       0.36701    0.78618    0.25491    1.000
    Si2635   Si       0.29252    0.80673    0.24618    1.000
    Si2636   Si       0.41426    0.80371    0.30815    1.000
    N2637    N        0.38536    0.81990    0.27854    1.000
    N2638    N        0.39044    0.78270    0.34121    1.000
    N2639    N        0.47532    0.79221    0.36405    1.000
    Si2640   Si       0.36768    0.80569    0.36978    1.000
    N2641    N        0.44631    0.77398    0.29876    1.000
    Si2642   Si       0.46341    0.77102    0.25922    1.000
    N2643    N        0.28695    0.80944    0.44461    1.000
    N2644    N        0.26555    0.78597    0.38114    1.000
    Si2645   Si       0.26789    0.82109    0.40646    1.000
    Si2646   Si       0.26948    0.77304    0.45691    1.000
    N2647    N        0.37688    0.78736    0.40712    1.000
    Si2648   Si       0.44955    0.77319    0.44573    1.000
    N2649    N        0.46997    0.78779    0.48108    1.000
    Si2650   Si       0.48145    0.81775    0.39840    1.000
    Si2651   Si       0.40243    0.82247    0.41740    1.000
    N2652    N        0.44401    0.80922    0.42053    1.000
    Si2653   Si       0.34043    0.80332    0.52678    1.000
    N2654    N        0.34074    0.78275    0.61091    1.000
    Si2655   Si       0.33891    0.82480    0.59808    1.000
    N2656    N        0.35618    0.83307    0.55815    1.000
    N2657    N        0.47532    0.79321    0.54899    1.000
    N2658    N        0.40940    0.79653    0.57797    1.000
    Si2659   Si       0.47233    0.81629    0.51134    1.000
    N2660    N        0.37879    0.79433    0.50916    1.000
    Si2661   Si       0.38836    0.78502    0.61684    1.000
    N2662    N        0.34973    0.79146    0.67505    1.000
    N2663    N        0.29460    0.80987    0.72397    1.000
    Si2664   Si       0.31221    0.81390    0.68417    1.000
    Si2665   Si       0.25104    0.80224    0.72079    1.000
    N2666    N        0.28857    0.78377    0.66168    1.000
    N2667    N        0.41517    0.78610    0.65062    1.000
    Si2668   Si       0.39269    0.80041    0.68283    1.000
    Si2669   Si       0.44479    0.78970    0.73152    1.000
    N2670    N        0.40326    0.77787    0.71745    1.000
    N2671    N        0.45659    0.82927    0.71545    1.000
    N2672    N        0.30466    0.80531    0.79545    1.000
    Si2673   Si       0.32279    0.80693    0.75550    1.000
    Si2674   Si       0.27741    0.78318    0.81922    1.000
    N2675    N        0.25532    0.80946    0.84795    1.000
    N2676    N        0.32059    0.82423    0.85667    1.000
    Si2677   Si       0.35629    0.80447    0.84023    1.000
    N2678    N        0.44175    0.79829    0.77384    1.000
    N2679    N        0.37740    0.81385    0.80123    1.000
    Si2680   Si       0.40861    0.78467    0.79832    1.000
    Si2681   Si       0.46389    0.82188    0.80154    1.000
    N2682    N        0.42202    0.78147    0.84032    1.000
    Si2683   Si       0.42347    0.82189    0.85897    1.000
    N2684    N        0.38139    0.82532    0.87029    1.000
    Si2685   Si       0.29088    0.79966    0.88176    1.000
    Si2686   Si       0.25004    0.82064    0.94070    1.000
    N2687    N        0.35622    0.79027    0.96025    1.000
    N2688    N        0.30005    0.77644    0.91754    1.000
    N2689    N        0.47459    0.79037    0.94841    1.000
    Si2690   Si       0.44472    0.80268    0.97702    1.000
    Si2691   Si       0.48519    0.81967    0.91643    1.000
    N2692    N        0.45007    0.83168    0.89118    1.000
    N2693    N        0.28227    0.86287    0.03236    1.000
    Si2694   Si       0.30910    0.86986    0.07186    1.000
    N2695    N        0.26808    0.87088    0.09180    1.000
    Si2696   Si       0.35717    0.88429    0.00682    1.000
    Si2697   Si       0.24526    0.86690    0.05510    1.000
    N2698    N        0.34346    0.88269    0.04866    1.000
    Si2699   Si       0.34943    0.83257    0.11763    1.000
    N2700    N        0.32365    0.83018    0.08471    1.000
    N2701    N        0.46325    0.87626    0.05591    1.000
    N2702    N        0.37880    0.86559    0.11279    1.000
    Si2703   Si       0.25369    0.87627    0.13127    1.000
    N2704    N        0.24930    0.87413    0.21173    1.000
    N2705    N        0.25996    0.83717    0.15098    1.000
    Si2706   Si       0.24364    0.83367    0.19196    1.000
    N2707    N        0.33667    0.83591    0.15940    1.000
    N2708    N        0.37129    0.86213    0.21796    1.000
    N2709    N        0.45537    0.85680    0.21897    1.000
    Si2710   Si       0.41526    0.85661    0.13509    1.000
    N2711    N        0.32435    0.87111    0.32370    1.000
    N2712    N        0.29803    0.84627    0.26110    1.000
    Si2713   Si       0.30310    0.84382    0.34697    1.000
    Si2714   Si       0.31253    0.88127    0.28422    1.000
    Si2715   Si       0.24791    0.88178    0.25714    1.000
    Si2716   Si       0.38366    0.85961    0.26057    1.000
    Si2717   Si       0.43035    0.87983    0.31649    1.000
    N2718    N        0.41899    0.88047    0.27395    1.000
    N2719    N        0.48175    0.86693    0.27454    1.000
    N2720    N        0.43374    0.83765    0.32622    1.000
    N2721    N        0.28946    0.85543    0.38782    1.000
    N2722    N        0.26545    0.87210    0.48083    1.000
    N2723    N        0.32772    0.86758    0.44661    1.000
    Si2724   Si       0.29791    0.84372    0.46998    1.000
    Si2725   Si       0.31143    0.88601    0.41066    1.000
    N2726    N        0.38239    0.84563    0.38518    1.000
    Si2727   Si       0.38419    0.88831    0.37484    1.000
    Si2728   Si       0.36705    0.87231    0.46121    1.000
    N2729    N        0.39216    0.83750    0.45604    1.000
    N2730    N        0.48796    0.85981    0.39250    1.000
    Si2731   Si       0.33733    0.86384    0.53264    1.000
    N2732    N        0.30435    0.84591    0.61271    1.000
    N2733    N        0.31890    0.83283    0.50470    1.000
    Si2734   Si       0.26606    0.86427    0.62083    1.000
    Si2735   Si       0.39589    0.83744    0.57630    1.000
    N2736    N        0.37180    0.87389    0.50545    1.000
    Si2737   Si       0.44201    0.87441    0.53916    1.000
    N2738    N        0.42765    0.86630    0.57998    1.000
    Si2739   Si       0.46209    0.86335    0.60782    1.000
    N2740    N        0.43500    0.83795    0.51591    1.000
    N2741    N        0.48419    0.87746    0.54298    1.000
    N2742    N        0.37995    0.83369    0.61752    1.000
    Si2743   Si       0.39600    0.83253    0.49851    1.000
    Si2744   Si       0.36045    0.86121    0.70794    1.000
    N2745    N        0.26292    0.87949    0.66205    1.000
    N2746    N        0.32528    0.85586    0.68317    1.000
    N2747    N        0.35208    0.83897    0.74499    1.000
    N2748    N        0.39464    0.84334    0.68767    1.000
    Si2749   Si       0.39775    0.86123    0.64432    1.000
    Si2750   Si       0.43507    0.85915    0.69128    1.000
    N2751    N        0.44069    0.86230    0.64689    1.000
    N2752    N        0.33949    0.87041    0.80488    1.000
    Si2753   Si       0.30518    0.84613    0.81730    1.000
    N2754    N        0.26765    0.86209    0.79407    1.000
    N2755    N        0.27950    0.88365    0.85095    1.000
    Si2756   Si       0.25375    0.84999    0.86620    1.000
    N2757    N        0.34532    0.89181    0.86945    1.000
    Si2758   Si       0.37058    0.85234    0.78075    1.000
    N2759    N        0.43846    0.84710    0.82705    1.000
    N2760    N        0.40385    0.88248    0.77625    1.000
    Si2761   Si       0.42852    0.88707    0.81444    1.000
    N2762    N        0.48737    0.85054    0.77643    1.000
    Si2763   Si       0.30271    0.85644    0.93166    1.000
    Si2764   Si       0.34814    0.85001    0.88172    1.000
    N2765    N        0.34181    0.84355    0.92326    1.000
    N2766    N        0.27228    0.83537    0.90408    1.000
    N2767    N        0.36332    0.84550    0.99070    1.000
    N2768    N        0.28291    0.83706    0.96500    1.000
    Si2769   Si       0.37282    0.83066    0.95039    1.000
    N2770    N        0.48275    0.85874    0.93669    1.000
    Si2771   Si       0.44528    0.87043    0.91170    1.000
    N2772    N        0.41515    0.82494    0.95364    1.000
    N2773    N        0.28521    0.93646    0.03358    1.000
    N2774    N        0.32074    0.90781    0.09807    1.000
    Si2775   Si       0.28528    0.90010    0.00693    1.000
    Si2776   Si       0.24666    0.94243    0.05598    1.000
    Si2777   Si       0.29031    0.93133    0.12164    1.000
    N2778    N        0.25708    0.94729    0.09810    1.000
    Si2779   Si       0.36316    0.90207    0.09028    1.000
    N2780    N        0.45025    0.92919    0.09848    1.000
    N2781    N        0.39481    0.91616    0.06210    1.000
    N2782    N        0.44431    0.93322    0.02338    1.000
    Si2783   Si       0.43893    0.91032    0.06125    1.000
    Si2784   Si       0.39974    0.94012    0.02579    1.000
    N2785    N        0.37800    0.93252    0.12338    1.000
    N2786    N        0.26422    0.94565    0.21109    1.000
    N2787    N        0.27557    0.90768    0.15291    1.000
    Si2788   Si       0.35369    0.90186    0.22348    1.000
    N2789    N        0.31376    0.91130    0.21223    1.000
    Si2790   Si       0.27379    0.90635    0.19585    1.000
    N2791    N        0.44445    0.91925    0.21710    1.000
    Si2792   Si       0.41546    0.94738    0.20173    1.000
    N2793    N        0.37652    0.93671    0.21541    1.000
    Si2794   Si       0.42163    0.92729    0.13246    1.000
    N2795    N        0.43230    0.89143    0.15488    1.000
    Si2796   Si       0.45985    0.88977    0.18857    1.000
    Si2797   Si       0.26185    0.93149    0.31642    1.000
    Si2798   Si       0.32541    0.93263    0.35952    1.000
    N2799    N        0.28367    0.92413    0.35425    1.000
    N2800    N        0.27212    0.90274    0.28491    1.000
    N2801    N        0.34259    0.94045    0.32031    1.000
    N2802    N        0.35388    0.89302    0.26946    1.000
    Si2803   Si       0.37402    0.91841    0.30055    1.000
    N2804    N        0.46814    0.93151    0.27430    1.000
    N2805    N        0.46552    0.89916    0.33518    1.000
    N2806    N        0.39319    0.89591    0.33253    1.000
    Si2807   Si       0.45382    0.89297    0.25318    1.000
    N2808    N        0.34342    0.90325    0.38687    1.000
    N2809    N        0.28065    0.91465    0.42548    1.000
    Si2810   Si       0.26087    0.93173    0.39082    1.000
    Si2811   Si       0.26389    0.91358    0.46566    1.000
    N2812    N        0.28315    0.94627    0.48570    1.000
    Si2813   Si       0.41032    0.93122    0.42746    1.000
    N2814    N        0.38513    0.91233    0.45790    1.000
    N2815    N        0.45070    0.93338    0.44820    1.000
    Si2816   Si       0.46483    0.89510    0.37826    1.000
    N2817    N        0.42170    0.90471    0.39351    1.000
    Si2818   Si       0.45065    0.93698    0.49107    1.000
    Si2819   Si       0.48198    0.94385    0.42090    1.000
    Si2820   Si       0.27510    0.91365    0.55468    1.000
    N2821    N        0.31729    0.90008    0.54701    1.000
    Si2822   Si       0.33720    0.94002    0.55958    1.000
    N2823    N        0.26378    0.90159    0.59647    1.000
    Si2824   Si       0.28330    0.94183    0.61546    1.000
    N2825    N        0.35902    0.94682    0.59680    1.000
    N2826    N        0.42961    0.90992    0.51924    1.000
    Si2827   Si       0.38756    0.91532    0.50404    1.000
    N2828    N        0.36859    0.94669    0.52933    1.000
    Si2829   Si       0.27643    0.92325    0.73906    1.000
    Si2830   Si       0.35381    0.93043    0.63593    1.000
    N2831    N        0.31264    0.91829    0.63794    1.000
    Si2832   Si       0.34185    0.93593    0.71275    1.000
    N2833    N        0.30434    0.91482    0.70870    1.000
    N2834    N        0.24642    0.88994    0.73340    1.000
    N2835    N        0.24393    0.94757    0.63486    1.000
    Si2836   Si       0.30200    0.89307    0.67312    1.000
    N2837    N        0.48032    0.94586    0.74060    1.000
    N2838    N        0.37786    0.89865    0.64042    1.000
    Si2839   Si       0.47686    0.91728    0.70667    1.000
    N2840    N        0.43749    0.89702    0.71054    1.000
    Si2841   Si       0.40874    0.90930    0.74021    1.000
    N2842    N        0.36990    0.90305    0.71865    1.000
    N2843    N        0.28805    0.92693    0.78208    1.000
    Si2844   Si       0.26796    0.90195    0.81214    1.000
    Si2845   Si       0.35591    0.90418    0.82587    1.000
    N2846    N        0.34219    0.94404    0.81577    1.000
    N2847    N        0.29995    0.95091    0.86859    1.000
    N2848    N        0.39849    0.90222    0.84052    1.000
    N2849    N        0.46430    0.91236    0.82178    1.000
    N2850    N        0.24712    0.94184    0.91582    1.000
    Si2851   Si       0.30567    0.90705    0.87615    1.000
    N2852    N        0.25427    0.90244    0.97641    1.000
    Si2853   Si       0.27535    0.92377    0.94297    1.000
    N2854    N        0.32247    0.90228    0.98523    1.000
    Si2855   Si       0.33847    0.94054    0.97060    1.000
    N2856    N        0.29676    0.89642    0.91767    1.000
    N2857    N        0.40452    0.89063    0.91568    1.000
    N2858    N        0.38778    0.91199    0.99297    1.000
    N2859    N        0.37092    0.94641    0.94077    1.000
    Si2860   Si       0.40114    0.91668    0.95064    1.000
    Si2861   Si       0.46802    0.92845    0.98791    1.000
    Si2862   Si       0.45668    0.94040    0.91467    1.000
    N2863    N        0.44288    0.92938    0.95413    1.000
    N2864    N        0.46314    0.90466    0.89060    1.000
    Si2865   Si       0.38358    0.91099    0.88182    1.000
    Si2866   Si       0.31622    0.96577    0.03852    1.000
    N2867    N        0.34452    0.96803    0.07364    1.000
    N2868    N        0.34485    0.96817    0.00442    1.000
    Si2869   Si       0.34932    0.96396    0.11783    1.000
    N2870    N        0.29268    0.00282    0.03881    1.000
    N2871    N        0.48679    0.98269    0.12104    1.000
    N2872    N        0.40020    0.98250    0.03310    1.000
    Si2873   Si       0.37871    0.00114    0.07489    1.000
    Si2874   Si       0.36874    0.00382    0.00896    1.000
    N2875    N        0.47899    0.00496    0.04252    1.000
    N2876    N        0.36490    0.00594    0.11985    1.000
    N2877    N        0.24586    0.97873    0.15815    1.000
    N2878    N        0.31124    0.96590    0.13891    1.000
    Si2879   Si       0.28953    0.99155    0.16546    1.000
    N2880    N        0.31398    0.98936    0.20251    1.000
    Si2881   Si       0.30552    0.95304    0.22543    1.000
    N2882    N        0.43271    0.95664    0.16236    1.000
    N2883    N        0.41754    0.98264    0.22664    1.000
    Si2884   Si       0.47064    0.98195    0.16311    1.000
    N2885    N        0.27666    0.97001    0.30016    1.000
    Si2886   Si       0.32222    0.97328    0.29877    1.000
    N2887    N        0.33184    0.95745    0.25992    1.000
    Si2888   Si       0.25113    0.00446    0.28972    1.000
    Si2889   Si       0.43865    0.96327    0.26490    1.000
    N2890    N        0.45434    0.99845    0.28260    1.000
    N2891    N        0.39891    0.94968    0.27950    1.000
    Si2892   Si       0.37356    0.97018    0.24729    1.000
    N2893    N        0.32966    0.97391    0.37961    1.000
    N2894    N        0.29799    0.00085    0.44414    1.000
    Si2895   Si       0.28553    0.98945    0.48538    1.000
    N2896    N        0.26087    0.97403    0.39606    1.000
    Si2897   Si       0.29863    0.99726    0.40135    1.000
    N2898    N        0.40039    0.96966    0.41577    1.000
    N2899    N        0.47443    0.98032    0.39376    1.000
    Si2900   Si       0.38784    0.00880    0.40928    1.000
    Si2901   Si       0.29946    0.99376    0.58580    1.000
    N2902    N        0.29443    0.95282    0.57119    1.000
    N2903    N        0.33905    0.00459    0.57081    1.000
    N2904    N        0.48296    0.98469    0.56311    1.000
    Si2905   Si       0.37379    0.98961    0.59576    1.000
    N2906    N        0.43484    0.97430    0.50620    1.000
    Si2907   Si       0.39976    0.97842    0.53175    1.000
    N2908    N        0.41114    0.98538    0.57382    1.000
    Si2909   Si       0.45013    0.98725    0.59255    1.000
    Si2910   Si       0.46918    0.99642    0.52160    1.000
    N2911    N        0.45244    0.95643    0.62169    1.000
    N2912    N        0.29804    0.98372    0.62806    1.000
    N2913    N        0.35276    0.95358    0.67318    1.000
    N2914    N        0.26478    0.96474    0.73576    1.000
    Si2915   Si       0.35842    0.99623    0.67105    1.000
    N2916    N        0.34345    0.96115    0.74720    1.000
    N2917    N        0.38458    0.00488    0.70618    1.000
    Si2918   Si       0.38049    0.98340    0.74521    1.000
    N2919    N        0.37989    0.01158    0.63391    1.000
    Si2920   Si       0.33770    0.96891    0.85206    1.000
    Si2921   Si       0.31934    0.95922    0.78262    1.000
    Si2922   Si       0.25066    0.00060    0.75409    1.000
    N2923    N        0.30740    0.00052    0.78834    1.000
    N2924    N        0.34514    0.01063    0.84579    1.000
    N2925    N        0.47795    0.97175    0.85683    1.000
    N2926    N        0.44932    0.98200    0.79442    1.000
    Si2927   Si       0.44708    0.97108    0.75225    1.000
    Si2928   Si       0.47587    0.95484    0.81606    1.000
    N2929    N        0.40963    0.95194    0.74702    1.000
    Si2930   Si       0.44555    0.99701    0.87055    1.000
    Si2931   Si       0.28590    0.99601    0.94837    1.000
    N2932    N        0.30070    0.95600    0.95404    1.000
    Si2933   Si       0.26307    0.96997    0.88470    1.000
    N2934    N        0.27531    0.00749    0.90759    1.000
    N2935    N        0.42999    0.97271    0.90489    1.000
    Si2936   Si       0.38641    0.97538    0.91168    1.000
    N2937    N        0.37034    0.95291    0.87632    1.000
    Si2938   Si       0.47806    0.00525    0.93028    1.000
    N2939    N        0.52520    0.03706    0.08009    1.000
    Si2940   Si       0.50625    0.04206    0.04087    1.000
    Si2941   Si       0.57064    0.05945    0.01246    1.000
    N2942    N        0.53145    0.04606    0.00298    1.000
    N2943    N        0.59141    0.05874    0.10994    1.000
    N2944    N        0.59532    0.02472    0.00140    1.000
    Si2945   Si       0.51909    0.01077    0.11289    1.000
    N2946    N        0.60799    0.00755    0.06390    1.000
    Si2947   Si       0.62237    0.04626    0.08134    1.000
    N2948    N        0.65500    0.03300    0.10673    1.000
    N2949    N        0.70508    0.05225    0.02323    1.000
    Si2950   Si       0.69034    0.01308    0.01651    1.000
    Si2951   Si       0.73600    0.06856    0.99714    1.000
    N2952    N        0.60579    0.01360    0.16554    1.000
    N2953    N        0.52391    0.04443    0.22103    1.000
    N2954    N        0.51703    0.03107    0.15024    1.000
    Si2955   Si       0.60126    0.05393    0.15126    1.000
    Si2956   Si       0.52975    0.06054    0.18085    1.000
    Si2957   Si       0.54800    0.01647    0.24359    1.000
    Si2958   Si       0.73755    0.01316    0.15889    1.000
    Si2959   Si       0.67338    0.06512    0.13380    1.000
    Si2960   Si       0.72427    0.06097    0.19303    1.000
    N2961    N        0.70247    0.04206    0.15960    1.000
    N2962    N        0.70775    0.03793    0.22695    1.000
    N2963    N        0.62466    0.00356    0.24398    1.000
    N2964    N        0.57354    0.03772    0.26814    1.000
    N2965    N        0.57288    0.03354    0.33683    1.000
    N2966    N        0.51148    0.03290    0.30462    1.000
    Si2967   Si       0.55034    0.05009    0.30282    1.000
    Si2968   Si       0.61734    0.04667    0.26082    1.000
    N2969    N        0.65869    0.04349    0.28664    1.000
    N2970    N        0.64619    0.04174    0.34980    1.000
    Si2971   Si       0.72834    0.05203    0.33956    1.000
    N2972    N        0.70663    0.01647    0.32656    1.000
    Si2973   Si       0.66361    0.01196    0.32218    1.000
    Si2974   Si       0.67594    0.05850    0.24862    1.000
    N2975    N        0.60157    0.02286    0.40233    1.000
    Si2976   Si       0.52594    0.03888    0.48139    1.000
    Si2977   Si       0.59539    0.02845    0.44606    1.000
    N2978    N        0.55147    0.02366    0.44942    1.000
    N2979    N        0.49662    0.03783    0.41073    1.000
    Si2980   Si       0.70952    0.03650    0.41133    1.000
    N2981    N        0.66850    0.02044    0.41519    1.000
    N2982    N        0.72505    0.04858    0.45150    1.000
    Si2983   Si       0.63879    0.04333    0.39189    1.000
    Si2984   Si       0.70017    0.04725    0.48623    1.000
    N2985    N        0.73665    0.00509    0.40183    1.000
    N2986    N        0.55271    0.04220    0.51738    1.000
    N2987    N        0.58614    0.05515    0.57083    1.000
    Si2988   Si       0.54472    0.04429    0.55947    1.000
    Si2989   Si       0.60449    0.01627    0.57513    1.000
    N2990    N        0.51629    0.06089    0.58472    1.000
    Si2991   Si       0.68111    0.04328    0.58626    1.000
    N2992    N        0.64368    0.02669    0.59449    1.000
    N2993    N        0.67826    0.01680    0.51115    1.000
    N2994    N        0.73379    0.05116    0.51712    1.000
    Si2995   Si       0.71656    0.01483    0.53292    1.000
    N2996    N        0.71073    0.01314    0.57544    1.000
    Si2997   Si       0.49337    0.01936    0.71625    1.000
    N2998    N        0.49745    0.01184    0.67321    1.000
    N2999    N        0.55745    0.05807    0.75257    1.000
    Si3000   Si       0.62567    0.01639    0.63329    1.000
    N3001    N        0.61572    0.05528    0.65000    1.000
    Si3002   Si       0.69735    0.01925    0.71148    1.000
    N3003    N        0.72328    0.03814    0.73920    1.000
    N3004    N        0.68209    0.04813    0.68242    1.000
    N3005    N        0.62604    0.05771    0.72092    1.000
    Si3006   Si       0.63237    0.02096    0.74285    1.000
    N3007    N        0.59289    0.03890    0.84114    1.000
    Si3008   Si       0.55980    0.02615    0.86609    1.000
    Si3009   Si       0.56098    0.01472    0.75497    1.000
    N3010    N        0.52985    0.05909    0.86957    1.000
    Si3011   Si       0.60690    0.00826    0.81384    1.000
    N3012    N        0.73897    0.04838    0.80373    1.000
    N3013    N        0.67469    0.02707    0.84210    1.000
    N3014    N        0.63352    0.02768    0.78596    1.000
    Si3015   Si       0.65954    0.05414    0.81139    1.000
    Si3016   Si       0.71967    0.06774    0.76994    1.000
    N3017    N        0.50682    0.03705    0.93807    1.000
    N3018    N        0.57310    0.02441    0.90682    1.000
    Si3019   Si       0.59042    0.06116    0.91899    1.000
    Si3020   Si       0.50070    0.05712    0.89928    1.000
    Si3021   Si       0.64791    0.01024    0.94386    1.000
    N3022    N        0.62624    0.04728    0.94146    1.000
    Si3023   Si       0.69761    0.02540    0.87834    1.000
    Si3024   Si       0.63028    0.05498    0.98494    1.000
    N3025    N        0.71377    0.06102    0.89411    1.000
    N3026    N        0.65434    0.01641    0.98951    1.000
    N3027    N        0.52973    0.10125    0.10448    1.000
    Si3028   Si       0.60802    0.10286    0.03777    1.000
    N3029    N        0.56833    0.08217    0.05104    1.000
    Si3030   Si       0.55434    0.06899    0.08779    1.000
    N3031    N        0.60059    0.08773    0.99756    1.000
    Si3032   Si       0.67461    0.08311    0.03261    1.000
    N3033    N        0.69297    0.11828    0.04868    1.000
    N3034    N        0.69288    0.09796    0.11618    1.000
    N3035    N        0.63773    0.07526    0.05434    1.000
    N3036    N        0.56778    0.07510    0.17079    1.000
    Si3037   Si       0.56897    0.11844    0.17843    1.000
    Si3038   Si       0.49263    0.11979    0.19105    1.000
    N3039    N        0.48973    0.07994    0.17407    1.000
    N3040    N        0.60606    0.12645    0.19788    1.000
    N3041    N        0.53363    0.12101    0.20370    1.000
    N3042    N        0.63860    0.06810    0.22925    1.000
    N3043    N        0.73041    0.10326    0.19365    1.000
    Si3044   Si       0.63704    0.09769    0.19834    1.000
    N3045    N        0.63870    0.07593    0.15893    1.000
    N3046    N        0.54910    0.09319    0.30472    1.000
    Si3047   Si       0.58891    0.11020    0.31429    1.000
    N3048    N        0.60065    0.11249    0.35670    1.000
    Si3049   Si       0.51720    0.11763    0.32153    1.000
    N3050    N        0.61472    0.08622    0.29182    1.000
    N3051    N        0.72577    0.08952    0.31779    1.000
    N3052    N        0.69585    0.09608    0.25907    1.000
    N3053    N        0.66371    0.10355    0.33989    1.000
    Si3054   Si       0.64474    0.07239    0.31970    1.000
    Si3055   Si       0.73407    0.08216    0.27563    1.000
    Si3056   Si       0.70205    0.12510    0.33409    1.000
    N3057    N        0.56159    0.12454    0.46962    1.000
    N3058    N        0.52013    0.07790    0.46142    1.000
    Si3059   Si       0.50633    0.07884    0.41651    1.000
    N3060    N        0.54588    0.09406    0.40593    1.000
    Si3061   Si       0.56017    0.08767    0.44510    1.000
    Si3062   Si       0.51425    0.11646    0.48214    1.000
    Si3063   Si       0.56395    0.12208    0.37927    1.000
    N3064    N        0.59884    0.07097    0.45432    1.000
    N3065    N        0.64300    0.08434    0.40715    1.000
    Si3066   Si       0.64123    0.11561    0.37783    1.000
    Si3067   Si       0.73962    0.10604    0.38760    1.000
    Si3068   Si       0.63941    0.08695    0.44976    1.000
    N3069    N        0.66891    0.07493    0.48020    1.000
    N3070    N        0.71975    0.06648    0.38063    1.000
    Si3071   Si       0.60038    0.09509    0.56611    1.000
    Si3072   Si       0.49651    0.09105    0.60588    1.000
    N3073    N        0.52156    0.12164    0.52600    1.000
    N3074    N        0.56714    0.12041    0.57145    1.000
    N3075    N        0.61573    0.10260    0.52558    1.000
    N3076    N        0.73255    0.11390    0.56284    1.000
    N3077    N        0.67475    0.07851    0.55659    1.000
    N3078    N        0.62318    0.10754    0.60109    1.000
    Si3079   Si       0.69711    0.10299    0.58480    1.000
    Si3080   Si       0.65838    0.09495    0.51943    1.000
    N3081    N        0.69907    0.07055    0.61518    1.000
    Si3082   Si       0.58997    0.07652    0.73245    1.000
    N3083    N        0.56459    0.09891    0.70862    1.000
    Si3084   Si       0.52808    0.08577    0.73107    1.000
    N3085    N        0.50011    0.11977    0.70653    1.000
    Si3086   Si       0.61195    0.09707    0.64034    1.000
    N3087    N        0.57722    0.12218    0.64655    1.000
    Si3088   Si       0.73724    0.11739    0.71468    1.000
    Si3089   Si       0.71066    0.07024    0.65758    1.000
    N3090    N        0.71202    0.10760    0.67978    1.000
    N3091    N        0.64020    0.10715    0.67304    1.000
    Si3092   Si       0.64324    0.06462    0.68262    1.000
    N3093    N        0.56841    0.10185    0.82393    1.000
    Si3094   Si       0.53184    0.09444    0.84618    1.000
    Si3095   Si       0.60119    0.08300    0.84621    1.000
    N3096    N        0.60647    0.10236    0.76553    1.000
    N3097    N        0.52634    0.11637    0.76375    1.000
    Si3098   Si       0.56681    0.11856    0.78234    1.000
    N3099    N        0.49293    0.09621    0.82691    1.000
    N3100    N        0.70166    0.11370    0.85338    1.000
    N3101    N        0.64074    0.08928    0.82894    1.000
    Si3102   Si       0.64865    0.11039    0.77178    1.000
    N3103    N        0.67718    0.07609    0.77896    1.000
    N3104    N        0.73645    0.10550    0.75516    1.000
    Si3105   Si       0.66450    0.12787    0.83724    1.000
    N3106    N        0.55879    0.08108    0.94521    1.000
    Si3107   Si       0.58528    0.11499    0.96523    1.000
    N3108    N        0.60649    0.08926    0.88871    1.000
    Si3109   Si       0.52203    0.06722    0.96514    1.000
    N3110    N        0.48932    0.09577    0.97692    1.000
    Si3111   Si       0.70111    0.10078    0.89538    1.000
    N3112    N        0.72936    0.09173    0.96105    1.000
    Si3113   Si       0.68811    0.10932    0.96264    1.000
    N3114    N        0.66975    0.11097    0.92330    1.000
    Si3115   Si       0.63203    0.12145    0.90367    1.000
    N3116    N        0.66371    0.08539    0.98958    1.000
    Si3117   Si       0.58705    0.16783    0.01538    1.000
    N3118    N        0.52050    0.17319    0.08968    1.000
    N3119    N        0.49523    0.14925    0.03186    1.000
    N3120    N        0.60904    0.14362    0.04357    1.000
    Si3121   Si       0.62314    0.17215    0.07328    1.000
    N3122    N        0.65584    0.15447    0.09402    1.000
    N3123    N        0.73038    0.15744    0.09262    1.000
    Si3124   Si       0.72313    0.13482    0.02262    1.000
    Si3125   Si       0.69262    0.13140    0.09091    1.000
    Si3126   Si       0.52631    0.14222    0.12067    1.000
    N3127    N        0.56228    0.14488    0.14555    1.000
    N3128    N        0.49692    0.14934    0.15587    1.000
    Si3129   Si       0.58786    0.17870    0.14142    1.000
    Si3130   Si       0.50411    0.18565    0.17773    1.000
    N3131    N        0.73621    0.15396    0.15992    1.000
    Si3132   Si       0.63400    0.16451    0.19971    1.000
    N3133    N        0.66542    0.13033    0.19119    1.000
    Si3134   Si       0.70623    0.13692    0.19150    1.000
    N3135    N        0.71220    0.15653    0.23233    1.000
    N3136    N        0.62730    0.18252    0.15613    1.000
    N3137    N        0.58447    0.14977    0.29167    1.000
    Si3138   Si       0.56131    0.16959    0.32224    1.000
    N3139    N        0.54190    0.14105    0.34915    1.000
    Si3140   Si       0.60781    0.17428    0.26147    1.000
    N3141    N        0.49267    0.15049    0.30727    1.000
    N3142    N        0.69941    0.15395    0.30086    1.000
    Si3143   Si       0.68570    0.13812    0.26282    1.000
    N3144    N        0.64356    0.15193    0.25535    1.000
    N3145    N        0.71251    0.13804    0.37572    1.000
    N3146    N        0.57832    0.15318    0.40918    1.000
    Si3147   Si       0.54976    0.15885    0.44300    1.000
    N3148    N        0.50792    0.14620    0.45122    1.000
    Si3149   Si       0.59971    0.12593    0.49256    1.000
    N3150    N        0.69703    0.15260    0.44503    1.000
    N3151    N        0.64841    0.15572    0.38929    1.000
    Si3152   Si       0.68967    0.16692    0.40149    1.000
    Si3153   Si       0.66604    0.15523    0.47778    1.000
    Si3154   Si       0.73546    0.13478    0.45601    1.000
    N3155    N        0.63446    0.12816    0.46600    1.000
    Si3156   Si       0.55237    0.14763    0.54082    1.000
    N3157    N        0.58648    0.16274    0.51536    1.000
    Si3158   Si       0.55809    0.13713    0.61238    1.000
    N3159    N        0.51510    0.12853    0.61566    1.000
    N3160    N        0.56110    0.18083    0.60412    1.000
    N3161    N        0.62673    0.16721    0.56383    1.000
    N3162    N        0.68218    0.14053    0.59956    1.000
    Si3163   Si       0.63904    0.14881    0.60025    1.000
    Si3164   Si       0.70815    0.17233    0.60491    1.000
    Si3165   Si       0.72092    0.13918    0.52719    1.000
    N3166    N        0.67964    0.13418    0.51434    1.000
    Si3167   Si       0.50072    0.16184    0.69708    1.000
    N3168    N        0.54335    0.17013    0.68721    1.000
    Si3169   Si       0.57080    0.13630    0.68771    1.000
    N3170    N        0.60489    0.15469    0.70651    1.000
    Si3171   Si       0.59838    0.17888    0.74286    1.000
    Si3172   Si       0.71330    0.15174    0.67159    1.000
    N3173    N        0.73675    0.16604    0.63935    1.000
    Si3174   Si       0.64443    0.14230    0.69693    1.000
    N3175    N        0.73509    0.15936    0.70860    1.000
    N3176    N        0.66098    0.13531    0.73591    1.000
    N3177    N        0.62229    0.17432    0.63174    1.000
    N3178    N        0.67430    0.16942    0.67648    1.000
    N3179    N        0.57767    0.16179    0.77749    1.000
    Si3180   Si       0.54375    0.16865    0.86305    1.000
    N3181    N        0.58597    0.17836    0.85384    1.000
    Si3182   Si       0.48618    0.13063    0.74982    1.000
    N3183    N        0.52953    0.17899    0.82354    1.000
    N3184    N        0.66603    0.14258    0.79663    1.000
    Si3185   Si       0.67089    0.16823    0.76129    1.000
    N3186    N        0.64534    0.14830    0.87043    1.000
    N3187    N        0.53565    0.12897    0.87510    1.000
    N3188    N        0.50640    0.15374    0.93884    1.000
    N3189    N        0.56275    0.14495    0.98696    1.000
    Si3190   Si       0.53997    0.17019    0.96037    1.000
    Si3191   Si       0.49938    0.13576    0.90033    1.000
    N3192    N        0.61039    0.13832    0.93637    1.000
    Si3193   Si       0.60964    0.18170    0.94300    1.000
    N3194    N        0.70140    0.14434    0.98584    1.000
    N3195    N        0.70633    0.17694    0.92676    1.000
    Si3196   Si       0.62561    0.18579    0.87045    1.000
    Si3197   Si       0.55351    0.19952    0.07932    1.000
    N3198    N        0.49730    0.21728    0.04029    1.000
    N3199    N        0.56036    0.19046    0.03796    1.000
    N3200    N        0.54059    0.24083    0.09658    1.000
    Si3201   Si       0.52029    0.18524    0.02126    1.000
    N3202    N        0.58982    0.18444    0.09843    1.000
    Si3203   Si       0.70004    0.23593    0.02957    1.000
    N3204    N        0.63625    0.20518    0.04912    1.000
    N3205    N        0.71012    0.21813    0.06782    1.000
    Si3206   Si       0.64114    0.21555    0.00714    1.000
    Si3207   Si       0.69713    0.23511    0.10630    1.000
    N3208    N        0.52610    0.20280    0.21322    1.000
    N3209    N        0.49683    0.21648    0.14908    1.000
    Si3210   Si       0.56851    0.21277    0.20222    1.000
    N3211    N        0.56531    0.21366    0.15888    1.000
    Si3212   Si       0.53380    0.23930    0.14038    1.000
    N3213    N        0.59993    0.18865    0.21988    1.000
    Si3214   Si       0.65773    0.21317    0.16388    1.000
    N3215    N        0.69588    0.21176    0.14273    1.000
    Si3216   Si       0.73376    0.19860    0.15889    1.000
    Si3217   Si       0.70427    0.19849    0.22323    1.000
    N3218    N        0.73747    0.21216    0.20036    1.000
    N3219    N        0.66610    0.19642    0.20361    1.000
    N3220    N        0.53818    0.20733    0.32372    1.000
    Si3221   Si       0.50302    0.22570    0.31020    1.000
    N3222    N        0.60660    0.21388    0.27923    1.000
    N3223    N        0.59297    0.18920    0.34644    1.000
    Si3224   Si       0.55758    0.21701    0.36329    1.000
    Si3225   Si       0.61957    0.21291    0.32039    1.000
    Si3226   Si       0.71626    0.19374    0.29174    1.000
    N3227    N        0.69599    0.21663    0.26109    1.000
    N3228    N        0.66158    0.20919    0.32432    1.000
    N3229    N        0.72703    0.22444    0.32090    1.000
    Si3230   Si       0.68970    0.24220    0.32989    1.000
    N3231    N        0.52816    0.20706    0.39652    1.000
    N3232    N        0.58853    0.21934    0.39936    1.000
    N3233    N        0.55281    0.19887    0.46148    1.000
    Si3234   Si       0.55546    0.22844    0.42876    1.000
    Si3235   Si       0.60623    0.17869    0.38668    1.000
    N3236    N        0.65052    0.19268    0.49455    1.000
    N3237    N        0.71220    0.20536    0.39896    1.000
    N3238    N        0.64910    0.22391    0.41670    1.000
    Si3239   Si       0.68657    0.24240    0.40829    1.000
    Si3240   Si       0.53784    0.21061    0.58033    1.000
    N3241    N        0.59453    0.22805    0.51394    1.000
    Si3242   Si       0.56310    0.19914    0.50486    1.000
    N3243    N        0.49738    0.18964    0.59145    1.000
    N3244    N        0.53425    0.18736    0.53985    1.000
    N3245    N        0.51488    0.24332    0.55860    1.000
    Si3246   Si       0.62335    0.19345    0.53208    1.000
    Si3247   Si       0.66700    0.23194    0.50685    1.000
    N3248    N        0.62318    0.23399    0.60723    1.000
    N3249    N        0.65577    0.22332    0.54814    1.000
    Si3250   Si       0.66180    0.23480    0.58976    1.000
    N3251    N        0.68091    0.20423    0.61595    1.000
    N3252    N        0.70729    0.24520    0.50794    1.000
    Si3253   Si       0.59253    0.20577    0.62069    1.000
    N3254    N        0.57842    0.21549    0.72933    1.000
    Si3255   Si       0.55694    0.21007    0.69098    1.000
    N3256    N        0.58273    0.22282    0.65887    1.000
    N3257    N        0.72247    0.23175    0.69750    1.000
    N3258    N        0.65117    0.23669    0.67265    1.000
    Si3259   Si       0.65404    0.19933    0.65084    1.000
    Si3260   Si       0.73614    0.19957    0.72462    1.000
    N3261    N        0.58665    0.22587    0.80232    1.000
    Si3262   Si       0.57010    0.18675    0.80973    1.000
    N3263    N        0.49772    0.22156    0.77503    1.000
    N3264    N        0.67086    0.23017    0.80222    1.000
    Si3265   Si       0.63078    0.22787    0.78682    1.000
    N3266    N        0.63521    0.19291    0.76130    1.000
    Si3267   Si       0.69841    0.23436    0.76900    1.000
    N3268    N        0.70434    0.19608    0.75352    1.000
    N3269    N        0.63981    0.22591    0.85967    1.000
    Si3270   Si       0.67757    0.23867    0.84365    1.000
    N3271    N        0.70428    0.21418    0.86845    1.000
    N3272    N        0.52686    0.19938    0.88767    1.000
    N3273    N        0.56887    0.19542    0.93772    1.000
    N3274    N        0.51585    0.20057    0.98022    1.000
    Si3275   Si       0.55444    0.22435    0.91076    1.000
    N3276    N        0.69607    0.24311    0.93037    1.000
    Si3277   Si       0.70815    0.18500    0.97016    1.000
    Si3278   Si       0.62454    0.24232    0.89775    1.000
    N3279    N        0.63685    0.20243    0.91378    1.000
    Si3280   Si       0.68318    0.20680    0.90679    1.000
    N3281    N        0.61697    0.18663    0.98592    1.000
    N3282    N        0.68361    0.21238    0.99675    1.000
    N3283    N        0.59673    0.26630    0.05845    1.000
    N3284    N        0.51136    0.28710    0.05403    1.000
    Si3285   Si       0.57035    0.27548    0.09315    1.000
    Si3286   Si       0.58802    0.26965    0.01421    1.000
    N3287    N        0.55178    0.25349    0.00465    1.000
    Si3288   Si       0.50465    0.24804    0.07126    1.000
    N3289    N        0.73260    0.25943    0.01573    1.000
    N3290    N        0.66818    0.26222    0.04116    1.000
    Si3291   Si       0.65378    0.28565    0.00748    1.000
    Si3292   Si       0.63512    0.24564    0.06594    1.000
    N3293    N        0.72279    0.26857    0.11714    1.000
    N3294    N        0.65302    0.24406    0.10594    1.000
    N3295    N        0.62341    0.25371    0.99729    1.000
    N3296    N        0.59799    0.28416    0.12737    1.000
    N3297    N        0.57082    0.25170    0.21856    1.000
    Si3298   Si       0.54977    0.28494    0.20052    1.000
    N3299    N        0.52725    0.27796    0.16148    1.000
    N3300    N        0.52532    0.30118    0.23530    1.000
    Si3301   Si       0.72891    0.29605    0.21517    1.000
    N3302    N        0.63345    0.26440    0.24387    1.000
    Si3303   Si       0.65237    0.27937    0.20963    1.000
    N3304    N        0.65039    0.25569    0.17371    1.000
    N3305    N        0.69249    0.27490    0.22794    1.000
    Si3306   Si       0.63786    0.27358    0.13519    1.000
    N3307    N        0.56802    0.27217    0.28617    1.000
    Si3308   Si       0.57311    0.27279    0.32858    1.000
    N3309    N        0.54639    0.25962    0.36057    1.000
    Si3310   Si       0.59373    0.24968    0.25649    1.000
    N3311    N        0.61249    0.25582    0.33614    1.000
    N3312    N        0.67969    0.27404    0.30065    1.000
    Si3313   Si       0.64248    0.28172    0.35496    1.000
    Si3314   Si       0.67568    0.25513    0.26157    1.000
    N3315    N        0.68032    0.26110    0.36847    1.000
    Si3316   Si       0.55720    0.29182    0.45295    1.000
    Si3317   Si       0.51678    0.27796    0.38915    1.000
    N3318    N        0.53045    0.26399    0.42831    1.000
    N3319    N        0.58977    0.25788    0.44692    1.000
    Si3320   Si       0.60192    0.26150    0.48936    1.000
    N3321    N        0.57204    0.29337    0.49527    1.000
    Si3322   Si       0.61606    0.24921    0.41184    1.000
    N3323    N        0.64453    0.26578    0.49021    1.000
    N3324    N        0.69806    0.26834    0.44020    1.000
    N3325    N        0.62254    0.28818    0.39211    1.000
    Si3326   Si       0.67212    0.29127    0.46747    1.000
    Si3327   Si       0.53314    0.27545    0.58357    1.000
    Si3328   Si       0.60021    0.26848    0.59629    1.000
    N3329    N        0.60548    0.29549    0.56428    1.000
    N3330    N        0.51019    0.29362    0.61437    1.000
    N3331    N        0.56324    0.24640    0.59556    1.000
    N3332    N        0.68159    0.27101    0.59753    1.000
    N3333    N        0.48615    0.28133    0.74253    1.000
    N3334    N        0.60598    0.28751    0.63460    1.000
    Si3335   Si       0.56944    0.25831    0.72688    1.000
    N3336    N        0.59936    0.27778    0.70377    1.000
    Si3337   Si       0.49255    0.26219    0.70509    1.000
    N3338    N        0.53315    0.24808    0.70163    1.000
    Si3339   Si       0.61142    0.25536    0.66586    1.000
    N3340    N        0.67735    0.25807    0.73911    1.000
    Si3341   Si       0.70501    0.27880    0.63328    1.000
    Si3342   Si       0.68310    0.25291    0.69637    1.000
    N3343    N        0.69661    0.29078    0.67612    1.000
    Si3344   Si       0.51113    0.26306    0.77490    1.000
    Si3345   Si       0.58049    0.26930    0.79315    1.000
    N3346    N        0.55225    0.27747    0.76200    1.000
    N3347    N        0.50512    0.28425    0.81031    1.000
    N3348    N        0.58301    0.29444    0.82816    1.000
    Si3349   Si       0.57201    0.28495    0.86951    1.000
    Si3350   Si       0.49133    0.26861    0.84698    1.000
    N3351    N        0.62180    0.26998    0.77779    1.000
    Si3352   Si       0.65764    0.29063    0.76061    1.000
    N3353    N        0.69500    0.27625    0.85410    1.000
    N3354    N        0.73183    0.25806    0.78139    1.000
    Si3355   Si       0.72535    0.30229    0.77585    1.000
    N3356    N        0.52809    0.28095    0.87355    1.000
    Si3357   Si       0.52509    0.28962    0.91605    1.000
    N3358    N        0.52801    0.25077    0.93272    1.000
    N3359    N        0.58305    0.24957    0.89222    1.000
    N3360    N        0.49253    0.27814    0.98295    1.000
    Si3361   Si       0.52147    0.24428    0.97538    1.000
    N3362    N        0.68193    0.29205    0.97569    1.000
    Si3363   Si       0.72491    0.29128    0.98862    1.000
    N3364    N        0.63929    0.27951    0.91215    1.000
    Si3365   Si       0.67849    0.28270    0.93293    1.000
    N3366    N        0.55005    0.31373    0.10355    1.000
    N3367    N        0.52870    0.33740    0.00539    1.000
    N3368    N        0.58635    0.35628    0.04372    1.000
    Si3369   Si       0.51163    0.32145    0.08332    1.000
    N3370    N        0.51664    0.36472    0.07106    1.000
    Si3371   Si       0.50120    0.30568    0.01643    1.000
    Si3372   Si       0.60971    0.34441    0.00879    1.000
    N3373    N        0.63756    0.35796    0.08608    1.000
    N3374    N        0.70126    0.32752    0.07083    1.000
    N3375    N        0.64441    0.32368    0.02659    1.000
    Si3376   Si       0.66637    0.34759    0.05483    1.000
    Si3377   Si       0.70577    0.30908    0.11129    1.000
    N3378    N        0.73204    0.33095    0.00382    1.000
    Si3379   Si       0.50366    0.31905    0.15224    1.000
    N3380    N        0.57152    0.31898    0.18605    1.000
    Si3381   Si       0.60419    0.34642    0.19470    1.000
    N3382    N        0.60569    0.35339    0.14727    1.000
    N3383    N        0.52150    0.36030    0.14534    1.000
    Si3384   Si       0.57594    0.32020    0.14100    1.000
    Si3385   Si       0.67616    0.34890    0.19168    1.000
    N3386    N        0.64238    0.32207    0.19785    1.000
    N3387    N        0.73467    0.33971    0.12518    1.000
    N3388    N        0.66217    0.30684    0.12563    1.000
    N3389    N        0.71513    0.32499    0.18901    1.000
    Si3390   Si       0.64397    0.34573    0.12667    1.000
    N3391    N        0.57116    0.33875    0.27789    1.000
    Si3392   Si       0.53146    0.33497    0.34328    1.000
    N3393    N        0.57336    0.31492    0.33772    1.000
    Si3394   Si       0.60351    0.33332    0.31037    1.000
    N3395    N        0.51430    0.32161    0.30482    1.000
    Si3396   Si       0.54274    0.30763    0.27434    1.000
    N3397    N        0.70447    0.34166    0.30032    1.000
    N3398    N        0.63925    0.33724    0.27701    1.000
    N3399    N        0.64110    0.32073    0.33603    1.000
    Si3400   Si       0.66874    0.31633    0.30067    1.000
    N3401    N        0.72948    0.33372    0.36202    1.000
    Si3402   Si       0.63737    0.36084    0.35512    1.000
    N3403    N        0.52029    0.32112    0.38356    1.000
    N3404    N        0.51672    0.31858    0.45511    1.000
    N3405    N        0.57363    0.32436    0.42667    1.000
    Si3406   Si       0.53262    0.34362    0.42227    1.000
    N3407    N        0.70281    0.35350    0.42495    1.000
    Si3408   Si       0.67320    0.35348    0.45523    1.000
    N3409    N        0.69054    0.32507    0.48780    1.000
    N3410    N        0.64391    0.32051    0.44936    1.000
    Si3411   Si       0.61555    0.32428    0.41588    1.000
    N3412    N        0.60095    0.35032    0.53617    1.000
    Si3413   Si       0.50032    0.32610    0.55035    1.000
    Si3414   Si       0.57848    0.31322    0.53458    1.000
    N3415    N        0.50361    0.35313    0.58648    1.000
    N3416    N        0.54085    0.30857    0.55383    1.000
    N3417    N        0.61482    0.35302    0.60557    1.000
    Si3418   Si       0.69846    0.33891    0.52665    1.000
    Si3419   Si       0.62735    0.33434    0.56853    1.000
    N3420    N        0.66829    0.33277    0.55868    1.000
    N3421    N        0.71868    0.31839    0.61712    1.000
    Si3422   Si       0.69721    0.30897    0.58002    1.000
    N3423    N        0.72280    0.30700    0.54531    1.000
    Si3424   Si       0.51552    0.33615    0.62204    1.000
    N3425    N        0.55584    0.33575    0.64295    1.000
    Si3426   Si       0.59831    0.32866    0.63931    1.000
    N3427    N        0.52196    0.33340    0.71531    1.000
    N3428    N        0.58269    0.33446    0.73840    1.000
    N3429    N        0.49736    0.35343    0.65967    1.000
    Si3430   Si       0.53953    0.35261    0.67912    1.000
    Si3431   Si       0.61258    0.31859    0.70983    1.000
    N3432    N        0.61807    0.34395    0.67562    1.000
    N3433    N        0.72431    0.33139    0.74117    1.000
    N3434    N        0.73349    0.35795    0.67721    1.000
    Si3435   Si       0.72660    0.31817    0.69914    1.000
    N3436    N        0.64923    0.32389    0.73287    1.000
    N3437    N        0.53250    0.34156    0.78621    1.000
    Si3438   Si       0.60228    0.33279    0.84100    1.000
    N3439    N        0.49838    0.34756    0.84834    1.000
    Si3440   Si       0.49669    0.32767    0.80929    1.000
    Si3441   Si       0.54366    0.31999    0.75105    1.000
    N3442    N        0.64381    0.32978    0.85131    1.000
    N3443    N        0.71268    0.34233    0.84340    1.000
    Si3444   Si       0.67348    0.33679    0.82155    1.000
    N3445    N        0.68421    0.30553    0.79151    1.000
    Si3446   Si       0.71345    0.30996    0.87249    1.000
    Si3447   Si       0.65785    0.36134    0.75005    1.000
    N3448    N        0.55482    0.31604    0.93167    1.000
    Si3449   Si       0.54183    0.34276    0.96359    1.000
    Si3450   Si       0.58485    0.35018    0.91662    1.000
    N3451    N        0.59233    0.32145    0.88285    1.000
    N3452    N        0.58959    0.30917    0.99378    1.000
    N3453    N        0.63046    0.35515    0.91836    1.000
    N3454    N        0.68688    0.31679    0.90768    1.000
    Si3455   Si       0.63945    0.31926    0.89462    1.000
    N3456    N        0.57417    0.38954    0.10482    1.000
    N3457    N        0.53972    0.40382    0.02764    1.000
    Si3458   Si       0.60293    0.38083    0.07337    1.000
    Si3459   Si       0.50243    0.40402    0.05126    1.000
    N3460    N        0.50741    0.41531    0.11333    1.000
    Si3461   Si       0.53304    0.37901    0.10861    1.000
    Si3462   Si       0.54364    0.36202    0.03667    1.000
    N3463    N        0.69786    0.39690    0.10075    1.000
    N3464    N        0.68121    0.38467    0.03713    1.000
    Si3465   Si       0.73565    0.37474    0.10065    1.000
    N3466    N        0.63347    0.41557    0.12084    1.000
    Si3467   Si       0.67167    0.39511    0.99473    1.000
    N3468    N        0.60088    0.37133    0.22880    1.000
    Si3469   Si       0.49965    0.39633    0.15551    1.000
    Si3470   Si       0.59957    0.39629    0.13862    1.000
    N3471    N        0.58290    0.41618    0.17090    1.000
    N3472    N        0.52446    0.37838    0.24922    1.000
    Si3473   Si       0.67319    0.40610    0.13713    1.000
    N3474    N        0.66827    0.36780    0.15455    1.000
    N3475    N        0.67387    0.37656    0.22401    1.000
    Si3476   Si       0.69398    0.40784    0.24974    1.000
    N3477    N        0.51220    0.37384    0.34285    1.000
    Si3478   Si       0.58850    0.41279    0.32405    1.000
    Si3479   Si       0.56581    0.37551    0.25749    1.000
    N3480    N        0.57141    0.41054    0.28394    1.000
    N3481    N        0.60451    0.37293    0.33070    1.000
    Si3482   Si       0.49197    0.40243    0.26337    1.000
    Si3483   Si       0.52684    0.40545    0.36792    1.000
    N3484    N        0.67465    0.38332    0.34586    1.000
    N3485    N        0.65609    0.40881    0.27270    1.000
    N3486    N        0.73085    0.38744    0.26357    1.000
    Si3487   Si       0.64052    0.37355    0.25141    1.000
    Si3488   Si       0.71207    0.36406    0.33615    1.000
    N3489    N        0.60081    0.42036    0.42038    1.000
    N3490    N        0.49515    0.40401    0.48622    1.000
    N3491    N        0.52228    0.38581    0.40787    1.000
    Si3492   Si       0.51405    0.40784    0.44599    1.000
    Si3493   Si       0.57566    0.40480    0.45503    1.000
    N3494    N        0.54623    0.37515    0.46124    1.000
    N3495    N        0.59620    0.40446    0.49344    1.000
    Si3496   Si       0.52002    0.36761    0.49707    1.000
    Si3497   Si       0.63653    0.41997    0.48705    1.000
    N3498    N        0.65523    0.39268    0.45759    1.000
    N3499    N        0.63335    0.36222    0.39742    1.000
    Si3500   Si       0.64154    0.40335    0.41721    1.000
    Si3501   Si       0.51687    0.39033    0.56968    1.000
    Si3502   Si       0.58188    0.38789    0.53057    1.000
    N3503    N        0.53887    0.38342    0.53461    1.000
    N3504    N        0.59337    0.41423    0.56441    1.000
    N3505    N        0.65141    0.42310    0.52808    1.000
    Si3506   Si       0.69538    0.41905    0.53486    1.000
    N3507    N        0.71232    0.37940    0.52631    1.000
    N3508    N        0.72534    0.38686    0.61097    1.000
    N3509    N        0.65150    0.41565    0.59507    1.000
    N3510    N        0.56290    0.38523    0.69457    1.000
    Si3511   Si       0.58475    0.37557    0.73011    1.000
    N3512    N        0.59306    0.41822    0.63605    1.000
    Si3513   Si       0.62460    0.39320    0.61956    1.000
    N3514    N        0.66055    0.38161    0.64592    1.000
    N3515    N        0.62699    0.38493    0.72861    1.000
    N3516    N        0.68633    0.39333    0.74489    1.000
    Si3517   Si       0.68761    0.40784    0.61930    1.000
    Si3518   Si       0.63755    0.38175    0.68456    1.000
    Si3519   Si       0.58446    0.40219    0.85661    1.000
    N3520    N        0.56925    0.40109    0.76262    1.000
    N3521    N        0.51964    0.40294    0.81290    1.000
    Si3522   Si       0.55241    0.37854    0.79666    1.000
    Si3523   Si       0.49579    0.39203    0.84871    1.000
    N3524    N        0.58027    0.36729    0.82915    1.000
    Si3525   Si       0.64620    0.40453    0.80468    1.000
    N3526    N        0.62618    0.41181    0.84240    1.000
    N3527    N        0.73474    0.38157    0.79396    1.000
    Si3528   Si       0.72478    0.37398    0.75169    1.000
    N3529    N        0.65390    0.36243    0.79277    1.000
    Si3530   Si       0.72508    0.41810    0.81493    1.000
    N3531    N        0.57739    0.36866    0.95869    1.000
    N3532    N        0.56724    0.38522    0.89359    1.000
    N3533    N        0.49938    0.40863    0.88818    1.000
    Si3534   Si       0.60271    0.40210    0.97062    1.000
    Si3535   Si       0.53182    0.39921    0.91518    1.000
    N3536    N        0.51196    0.36554    0.94077    1.000
    Si3537   Si       0.72818    0.36228    0.97369    1.000
    N3538    N        0.67991    0.40470    0.89303    1.000
    N3539    N        0.62959    0.38057    0.99483    1.000
    N3540    N        0.63091    0.41838    0.94162    1.000
    Si3541   Si       0.65904    0.38739    0.92737    1.000
    N3542    N        0.68842    0.37555    0.95948    1.000
    Si3543   Si       0.57128    0.43556    0.03064    1.000
    Si3544   Si       0.49826    0.45596    0.09928    1.000
    N3545    N        0.49655    0.44521    0.05719    1.000
    N3546    N        0.60318    0.47745    0.09424    1.000
    N3547    N        0.60381    0.42178    0.05643    1.000
    N3548    N        0.66530    0.44994    0.06431    1.000
    Si3549   Si       0.62750    0.44382    0.08674    1.000
    N3550    N        0.73497    0.43528    0.05252    1.000
    Si3551   Si       0.69498    0.41729    0.06171    1.000
    N3552    N        0.56087    0.46032    0.22764    1.000
    Si3553   Si       0.55454    0.44195    0.18752    1.000
    N3554    N        0.51508    0.42412    0.18555    1.000
    N3555    N        0.69909    0.45141    0.24426    1.000
    N3556    N        0.69925    0.43011    0.16121    1.000
    Si3557   Si       0.68516    0.47151    0.16071    1.000
    Si3558   Si       0.55280    0.44761    0.26926    1.000
    N3559    N        0.51104    0.44028    0.27183    1.000
    N3560    N        0.56560    0.42134    0.35997    1.000
    N3561    N        0.50069    0.43908    0.37097    1.000
    N3562    N        0.62487    0.43691    0.32749    1.000
    N3563    N        0.68376    0.45081    0.32113    1.000
    Si3564   Si       0.65123    0.44570    0.29238    1.000
    Si3565   Si       0.66263    0.42452    0.34947    1.000
    N3566    N        0.64092    0.47550    0.26450    1.000
    Si3567   Si       0.71983    0.47575    0.32698    1.000
    N3568    N        0.72434    0.46966    0.36957    1.000
    N3569    N        0.54366    0.43729    0.45443    1.000
    Si3570   Si       0.58501    0.44824    0.38691    1.000
    N3571    N        0.54840    0.47522    0.40019    1.000
    Si3572   Si       0.69002    0.46691    0.39961    1.000
    N3573    N        0.66661    0.43233    0.39164    1.000
    N3574    N        0.70709    0.45994    0.43940    1.000
    Si3575   Si       0.68444    0.47190    0.47473    1.000
    N3576    N        0.64315    0.46277    0.47476    1.000
    Si3577   Si       0.57291    0.43422    0.59885    1.000
    N3578    N        0.52264    0.46522    0.52218    1.000
    N3579    N        0.56785    0.47555    0.58611    1.000
    N3580    N        0.53392    0.41644    0.60014    1.000
    Si3581   Si       0.49048    0.43519    0.51900    1.000
    Si3582   Si       0.63165    0.43783    0.56351    1.000
    N3583    N        0.71082    0.43273    0.57072    1.000
    Si3584   Si       0.72519    0.47242    0.58504    1.000
    N3585    N        0.70834    0.44693    0.50400    1.000
    Si3586   Si       0.49727    0.42981    0.70053    1.000
    N3587    N        0.57444    0.45226    0.70155    1.000
    Si3588   Si       0.50410    0.43112    0.62705    1.000
    N3589    N        0.52180    0.42879    0.66513    1.000
    N3590    N        0.51551    0.42936    0.73906    1.000
    Si3591   Si       0.55950    0.44053    0.74177    1.000
    Si3592   Si       0.56530    0.42137    0.67255    1.000
    N3593    N        0.70129    0.43589    0.64995    1.000
    Si3594   Si       0.67750    0.45676    0.68260    1.000
    Si3595   Si       0.65462    0.42393    0.73395    1.000
    N3596    N        0.64673    0.42783    0.69037    1.000
    N3597    N        0.67792    0.46481    0.72646    1.000
    Si3598   Si       0.53086    0.46113    0.83300    1.000
    N3599    N        0.56962    0.44484    0.85239    1.000
    N3600    N        0.50309    0.45927    0.79631    1.000
    N3601    N        0.57190    0.47173    0.76897    1.000
    Si3602   Si       0.60200    0.47253    0.85660    1.000
    N3603    N        0.49338    0.46875    0.85706    1.000
    Si3604   Si       0.61236    0.46933    0.78083    1.000
    Si3605   Si       0.49728    0.42143    0.77766    1.000
    N3606    N        0.63456    0.43311    0.77416    1.000
    Si3607   Si       0.66232    0.43132    0.86144    1.000
    N3608    N        0.68312    0.41645    0.82335    1.000
    N3609    N        0.58685    0.43813    0.98960    1.000
    Si3610   Si       0.56768    0.45950    0.95804    1.000
    N3611    N        0.53713    0.43390    0.94080    1.000
    Si3612   Si       0.50664    0.46393    0.95710    1.000
    N3613    N        0.60185    0.48083    0.93954    1.000
    N3614    N        0.69787    0.46068    0.86859    1.000
    Si3615   Si       0.71689    0.42642    0.88739    1.000
    Si3616   Si       0.63910    0.46055    0.92874    1.000
    N3617    N        0.63208    0.45946    0.88492    1.000
    Si3618   Si       0.73198    0.43015    0.96900    1.000
    N3619    N        0.73706    0.42971    0.92454    1.000
    Si3620   Si       0.69608    0.47672    0.98159    1.000
    N3621    N        0.69217    0.43332    0.98753    1.000
    N3622    N        0.74178    0.47197    0.97962    1.000
    Si3623   Si       0.56493    0.49420    0.07811    1.000
    Si3624   Si       0.54119    0.50586    0.00883    1.000
    N3625    N        0.50082    0.51110    0.02565    1.000
    N3626    N        0.53102    0.48490    0.10565    1.000
    N3627    N        0.57730    0.53629    0.08277    1.000
    N3628    N        0.55913    0.47844    0.03768    1.000
    N3629    N        0.65763    0.52522    0.07712    1.000
    N3630    N        0.71309    0.49506    0.07808    1.000
    Si3631   Si       0.67555    0.49276    0.05517    1.000
    N3632    N        0.68126    0.50137    0.01320    1.000
    Si3633   Si       0.62928    0.50805    0.10906    1.000
    Si3634   Si       0.69551    0.51252    0.11506    1.000
    N3635    N        0.55228    0.48218    0.17091    1.000
    Si3636   Si       0.52834    0.50738    0.14385    1.000
    Si3637   Si       0.56098    0.50105    0.20963    1.000
    N3638    N        0.59844    0.51643    0.22425    1.000
    N3639    N        0.49092    0.51599    0.16302    1.000
    N3640    N        0.53354    0.53590    0.21141    1.000
    N3641    N        0.65977    0.48247    0.12693    1.000
    N3642    N        0.61499    0.53037    0.14280    1.000
    N3643    N        0.66580    0.49282    0.19326    1.000
    N3644    N        0.72109    0.49226    0.14445    1.000
    Si3645   Si       0.64852    0.52754    0.17225    1.000
    Si3646   Si       0.67242    0.48685    0.23475    1.000
    Si3647   Si       0.55324    0.51297    0.31167    1.000
    N3648    N        0.51950    0.49792    0.33459    1.000
    Si3649   Si       0.60368    0.49692    0.26412    1.000
    N3650    N        0.57191    0.48136    0.28865    1.000
    Si3651   Si       0.48873    0.52621    0.32060    1.000
    N3652    N        0.71108    0.51588    0.31102    1.000
    Si3653   Si       0.72389    0.53028    0.26844    1.000
    N3654    N        0.64892    0.53412    0.34870    1.000
    N3655    N        0.68617    0.52570    0.24591    1.000
    N3656    N        0.48924    0.50818    0.39524    1.000
    N3657    N        0.51790    0.50403    0.45710    1.000
    N3658    N        0.58379    0.49931    0.45304    1.000
    Si3659   Si       0.50914    0.53157    0.42306    1.000
    Si3660   Si       0.51395    0.48002    0.37421    1.000
    Si3661   Si       0.54838    0.47794    0.44241    1.000
    N3662    N        0.61251    0.48034    0.38379    1.000
    Si3663   Si       0.63511    0.51533    0.38746    1.000
    Si3664   Si       0.61156    0.49084    0.48319    1.000
    N3665    N        0.67289    0.50502    0.40458    1.000
    N3666    N        0.69474    0.51306    0.48779    1.000
    Si3667   Si       0.73552    0.51799    0.47549    1.000
    N3668    N        0.73685    0.53334    0.43510    1.000
    Si3669   Si       0.59793    0.50390    0.59968    1.000
    N3670    N        0.54428    0.52356    0.52722    1.000
    Si3671   Si       0.51456    0.50443    0.50173    1.000
    Si3672   Si       0.55776    0.48367    0.54246    1.000
    N3673    N        0.59318    0.47442    0.51876    1.000
    Si3674   Si       0.66400    0.51009    0.59072    1.000
    N3675    N        0.70075    0.49569    0.60969    1.000
    N3676    N        0.67978    0.52437    0.55392    1.000
    Si3677   Si       0.66952    0.53578    0.51281    1.000
    N3678    N        0.63833    0.53613    0.61273    1.000
    N3679    N        0.63251    0.48003    0.58164    1.000
    N3680    N        0.62800    0.52906    0.49736    1.000
    N3681    N        0.57516    0.52162    0.71452    1.000
    Si3682   Si       0.57460    0.49238    0.68205    1.000
    N3683    N        0.53427    0.50367    0.67197    1.000
    Si3684   Si       0.53044    0.52268    0.71364    1.000
    N3685    N        0.59862    0.50019    0.64543    1.000
    Si3686   Si       0.49274    0.49131    0.66189    1.000
    Si3687   Si       0.59852    0.53472    0.74836    1.000
    Si3688   Si       0.63526    0.52186    0.65598    1.000
    N3689    N        0.73990    0.48304    0.67560    1.000
    Si3690   Si       0.71015    0.50712    0.65109    1.000
    N3691    N        0.66931    0.49698    0.66536    1.000
    N3692    N        0.68071    0.53943    0.72941    1.000
    N3693    N        0.54265    0.50199    0.82916    1.000
    Si3694   Si       0.54512    0.50466    0.78362    1.000
    Si3695   Si       0.55342    0.52498    0.86527    1.000
    N3696    N        0.51581    0.51205    0.75261    1.000
    Si3697   Si       0.65321    0.51691    0.81246    1.000
    N3698    N        0.66986    0.52079    0.85374    1.000
    N3699    N        0.68425    0.49897    0.78724    1.000
    Si3700   Si       0.70837    0.50384    0.85931    1.000
    Si3701   Si       0.72706    0.49071    0.78779    1.000
    N3702    N        0.62917    0.50647    0.75610    1.000
    N3703    N        0.62164    0.48519    0.81904    1.000
    N3704    N        0.73714    0.50777    0.82765    1.000
    Si3705   Si       0.66963    0.50059    0.74709    1.000
    N3706    N        0.59470    0.51316    0.87173    1.000
    N3707    N        0.52330    0.51966    0.89822    1.000
    Si3708   Si       0.53483    0.53026    0.93986    1.000
    N3709    N        0.53931    0.49305    0.96630    1.000
    Si3710   Si       0.60976    0.52427    0.94141    1.000
    Si3711   Si       0.63322    0.53486    0.87485    1.000
    N3712    N        0.62466    0.54008    0.98137    1.000
    N3713    N        0.64395    0.53309    0.91698    1.000
    N3714    N        0.67518    0.48067    0.94521    1.000
    N3715    N        0.71896    0.51347    0.90036    1.000
    Si3716   Si       0.68481    0.51940    0.92645    1.000
    Si3717   Si       0.55682    0.56023    0.05278    1.000
    N3718    N        0.51650    0.56677    0.06554    1.000
    N3719    N        0.56164    0.54346    0.01193    1.000
    Si3720   Si       0.66893    0.56502    0.06500    1.000
    N3721    N        0.67335    0.57036    0.02059    1.000
    N3722    N        0.70484    0.57519    0.08970    1.000
    N3723    N        0.59135    0.59584    0.11911    1.000
    Si3724   Si       0.58266    0.55185    0.12320    1.000
    Si3725   Si       0.53385    0.56861    0.18020    1.000
    N3726    N        0.54550    0.54721    0.14463    1.000
    N3727    N        0.58912    0.58071    0.23770    1.000
    N3728    N        0.49461    0.59053    0.18729    1.000
    Si3729   Si       0.55129    0.56208    0.24589    1.000
    Si3730   Si       0.68483    0.57227    0.23765    1.000
    N3731    N        0.68053    0.54164    0.14354    1.000
    Si3732   Si       0.62270    0.55530    0.24367    1.000
    Si3733   Si       0.69868    0.57919    0.13194    1.000
    N3734    N        0.64735    0.56067    0.20324    1.000
    N3735    N        0.51186    0.56284    0.33591    1.000
    Si3736   Si       0.52074    0.58453    0.29740    1.000
    Si3737   Si       0.54636    0.56498    0.36354    1.000
    N3738    N        0.53958    0.54475    0.28300    1.000
    N3739    N        0.57573    0.53878    0.34040    1.000
    N3740    N        0.52194    0.59689    0.24781    1.000
    N3741    N        0.61612    0.53497    0.28229    1.000
    Si3742   Si       0.61595    0.54888    0.32370    1.000
    N3743    N        0.61936    0.59179    0.32342    1.000
    N3744    N        0.68954    0.58294    0.31900    1.000
    N3745    N        0.72620    0.57266    0.26196    1.000
    N3746    N        0.65076    0.58624    0.26274    1.000
    Si3747   Si       0.68990    0.54363    0.33736    1.000
    Si3748   Si       0.72721    0.59401    0.30243    1.000
    N3749    N        0.57666    0.57084    0.46137    1.000
    N3750    N        0.54443    0.54691    0.40259    1.000
    Si3751   Si       0.60929    0.56806    0.49081    1.000
    Si3752   Si       0.57895    0.54013    0.43004    1.000
    N3753    N        0.48599    0.56307    0.44351    1.000
    N3754    N        0.71663    0.54865    0.37035    1.000
    Si3755   Si       0.63476    0.58280    0.43073    1.000
    N3756    N        0.61605    0.54879    0.40939    1.000
    N3757    N        0.64222    0.59226    0.47280    1.000
    N3758    N        0.67867    0.57752    0.42136    1.000
    Si3759   Si       0.70101    0.53915    0.41088    1.000
    Si3760   Si       0.56346    0.55796    0.54352    1.000
    N3761    N        0.59488    0.58581    0.52547    1.000
    Si3762   Si       0.61128    0.56884    0.60003    1.000
    N3763    N        0.53569    0.59196    0.54660    1.000
    N3764    N        0.58544    0.54150    0.57836    1.000
    N3765    N        0.68794    0.57525    0.51899    1.000
    Si3766   Si       0.70494    0.56101    0.55831    1.000
    N3767    N        0.69821    0.59209    0.58958    1.000
    N3768    N        0.51024    0.56826    0.63264    1.000
    N3769    N        0.51303    0.56057    0.70745    1.000
    N3770    N        0.58720    0.58423    0.63204    1.000
    Si3771   Si       0.49243    0.56577    0.67059    1.000
    Si3772   Si       0.61772    0.59375    0.66126    1.000
    Si3773   Si       0.65229    0.57001    0.71649    1.000
    N3774    N        0.73446    0.54176    0.64562    1.000
    N3775    N        0.63360    0.55867    0.68005    1.000
    Si3776   Si       0.72031    0.55237    0.74118    1.000
    N3777    N        0.62039    0.57640    0.74525    1.000
    N3778    N        0.55151    0.56711    0.85328    1.000
    Si3779   Si       0.55843    0.58508    0.78384    1.000
    Si3780   Si       0.51715    0.58844    0.84054    1.000
    N3781    N        0.56748    0.54260    0.77815    1.000
    Si3782   Si       0.58584    0.59170    0.85005    1.000
    N3783    N        0.65905    0.56052    0.80237    1.000
    N3784    N        0.71966    0.58724    0.76447    1.000
    Si3785   Si       0.63225    0.58840    0.78615    1.000
    Si3786   Si       0.69333    0.59089    0.79980    1.000
    N3787    N        0.62521    0.57747    0.86685    1.000
    Si3788   Si       0.58717    0.56163    0.98403    1.000
    N3789    N        0.49961    0.54836    0.95675    1.000
    N3790    N        0.57430    0.54730    0.94437    1.000
    Si3791   Si       0.66554    0.53704    0.99428    1.000
    Si3792   Si       0.71054    0.58066    0.94149    1.000
    N3793    N        0.69271    0.54417    0.96138    1.000
    N3794    N        0.69130    0.59290    0.90277    1.000
    Si3795   Si       0.56445    0.62068    0.01537    1.000
    Si3796   Si       0.60246    0.61010    0.07990    1.000
    N3797    N        0.52539    0.61249    0.99919    1.000
    N3798    N        0.57382    0.59918    0.05078    1.000
    N3799    N        0.52598    0.62384    0.12057    1.000
    Si3800   Si       0.50399    0.59920    0.09248    1.000
    N3801    N        0.61287    0.65248    0.07426    1.000
    N3802    N        0.67110    0.64460    0.02725    1.000
    Si3803   Si       0.69369    0.60950    0.01179    1.000
    Si3804   Si       0.65480    0.64176    0.06747    1.000
    N3805    N        0.73023    0.61128    0.03365    1.000
    N3806    N        0.64375    0.59969    0.07279    1.000
    Si3807   Si       0.73935    0.59934    0.07458    1.000
    Si3808   Si       0.49388    0.61866    0.22144    1.000
    N3809    N        0.55956    0.60442    0.18202    1.000
    Si3810   Si       0.58488    0.61611    0.21475    1.000
    Si3811   Si       0.56297    0.62119    0.14305    1.000
    N3812    N        0.57185    0.64924    0.23884    1.000
    N3813    N        0.50274    0.65575    0.24336    1.000
    N3814    N        0.69213    0.60508    0.21124    1.000
    N3815    N        0.66990    0.60905    0.14420    1.000
    Si3816   Si       0.68016    0.65103    0.13768    1.000
    N3817    N        0.62165    0.62759    0.19378    1.000
    Si3818   Si       0.71539    0.64099    0.20449    1.000
    N3819    N        0.71763    0.64953    0.16216    1.000
    Si3820   Si       0.65542    0.60167    0.18592    1.000
    Si3821   Si       0.58554    0.61681    0.32745    1.000
    Si3822   Si       0.53907    0.63579    0.26619    1.000
    N3823    N        0.55707    0.60629    0.29784    1.000
    N3824    N        0.56218    0.60492    0.36290    1.000
    N3825    N        0.49189    0.61698    0.30130    1.000
    N3826    N        0.72741    0.63649    0.29337    1.000
    N3827    N        0.66240    0.64474    0.31171    1.000
    Si3828   Si       0.65385    0.60379    0.30170    1.000
    N3829    N        0.60444    0.61616    0.42431    1.000
    N3830    N        0.56082    0.63933    0.48232    1.000
    Si3831   Si       0.56940    0.61187    0.44917    1.000
    N3832    N        0.53304    0.61742    0.42543    1.000
    Si3833   Si       0.54614    0.63862    0.38557    1.000
    Si3834   Si       0.49276    0.60608    0.43576    1.000
    N3835    N        0.68462    0.64824    0.41587    1.000
    Si3836   Si       0.70284    0.61238    0.42522    1.000
    N3837    N        0.70972    0.62033    0.46822    1.000
    Si3838   Si       0.67511    0.61014    0.49548    1.000
    N3839    N        0.73764    0.60779    0.39989    1.000
    N3840    N        0.53010    0.62965    0.60736    1.000
    Si3841   Si       0.51048    0.61814    0.56854    1.000
    Si3842   Si       0.55477    0.62349    0.52417    1.000
    N3843    N        0.58805    0.64602    0.54544    1.000
    N3844    N        0.52066    0.65054    0.53816    1.000
    Si3845   Si       0.61962    0.61612    0.54283    1.000
    N3846    N        0.65348    0.63638    0.52339    1.000
    Si3847   Si       0.66456    0.61928    0.59988    1.000
    Si3848   Si       0.72278    0.61932    0.61352    1.000
    N3849    N        0.69280    0.65321    0.60712    1.000
    N3850    N        0.63141    0.60188    0.58042    1.000
    Si3851   Si       0.53093    0.60085    0.71517    1.000
    N3852    N        0.53866    0.61349    0.67316    1.000
    Si3853   Si       0.60124    0.61628    0.73177    1.000
    N3854    N        0.50167    0.63039    0.72945    1.000
    N3855    N        0.60147    0.62241    0.68934    1.000
    Si3856   Si       0.56754    0.64634    0.67427    1.000
    N3857    N        0.56161    0.60764    0.74629    1.000
    Si3858   Si       0.54459    0.59647    0.63328    1.000
    N3859    N        0.71707    0.60818    0.65628    1.000
    N3860    N        0.65189    0.61495    0.64283    1.000
    N3861    N        0.66842    0.61084    0.71424    1.000
    Si3862   Si       0.68181    0.62489    0.67427    1.000
    Si3863   Si       0.66492    0.63861    0.74815    1.000
    N3864    N        0.57921    0.63375    0.86185    1.000
    N3865    N        0.51124    0.62080    0.87182    1.000
    N3866    N        0.51894    0.59617    0.79760    1.000
    N3867    N        0.59427    0.59737    0.80642    1.000
    N3868    N        0.71214    0.61049    0.83263    1.000
    N3869    N        0.66279    0.62051    0.78947    1.000
    N3870    N        0.66202    0.63677    0.86604    1.000
    Si3871   Si       0.66561    0.65058    0.82308    1.000
    N3872    N        0.62343    0.65153    0.75024    1.000
    N3873    N        0.59140    0.60431    0.98451    1.000
    N3874    N        0.54960    0.62586    0.92980    1.000
    Si3875   Si       0.51948    0.63136    0.95875    1.000
    Si3876   Si       0.54452    0.64041    0.88844    1.000
    Si3877   Si       0.59208    0.62767    0.94629    1.000
    N3878    N        0.62364    0.61263    0.92358    1.000
    N3879    N        0.69962    0.61481    0.96901    1.000
    Si3880   Si       0.69531    0.65300    0.94884    1.000
    N3881    N        0.71755    0.65319    0.91101    1.000
    Si3882   Si       0.71275    0.62300    0.87734    1.000
    Si3883   Si       0.65018    0.60296    0.89137    1.000
    Si3884   Si       0.58607    0.68230    0.05773    1.000
    N3885    N        0.55390    0.69402    0.08669    1.000
    N3886    N        0.56736    0.66356    0.02232    1.000
    N3887    N        0.50982    0.70560    0.02989    1.000
    Si3888   Si       0.51387    0.71013    0.07379    1.000
    Si3889   Si       0.68099    0.68443    0.01255    1.000
    Si3890   Si       0.70266    0.69623    0.08537    1.000
    N3891    N        0.68072    0.70807    0.05059    1.000
    N3892    N        0.68241    0.65897    0.09551    1.000
    Si3893   Si       0.50090    0.65886    0.12476    1.000
    Si3894   Si       0.51093    0.70841    0.18502    1.000
    N3895    N        0.53980    0.71035    0.21815    1.000
    N3896    N        0.51904    0.68975    0.14900    1.000
    N3897    N        0.58067    0.66215    0.14592    1.000
    Si3898   Si       0.57778    0.69174    0.23133    1.000
    Si3899   Si       0.56047    0.69779    0.12847    1.000
    N3900    N        0.61048    0.69767    0.20559    1.000
    Si3901   Si       0.61557    0.66818    0.17372    1.000
    N3902    N        0.65217    0.67886    0.15493    1.000
    N3903    N        0.70324    0.67616    0.22873    1.000
    Si3904   Si       0.57284    0.69194    0.30528    1.000
    N3905    N        0.53799    0.66962    0.29763    1.000
    N3906    N        0.59684    0.65912    0.31959    1.000
    N3907    N        0.58636    0.71440    0.26865    1.000
    Si3908   Si       0.50181    0.65624    0.31714    1.000
    N3909    N        0.50997    0.65252    0.36175    1.000
    Si3910   Si       0.63584    0.67303    0.33112    1.000
    N3911    N        0.70684    0.69609    0.29181    1.000
    N3912    N        0.70876    0.68155    0.35793    1.000
    Si3913   Si       0.72874    0.66914    0.26453    1.000
    Si3914   Si       0.70321    0.66076    0.32085    1.000
    N3915    N        0.64241    0.71539    0.32358    1.000
    N3916    N        0.57180    0.66966    0.40036    1.000
    N3917    N        0.51605    0.69128    0.45843    1.000
    Si3918   Si       0.55272    0.68155    0.47924    1.000
    N3919    N        0.57803    0.71265    0.45958    1.000
    Si3920   Si       0.57136    0.71161    0.41494    1.000
    Si3921   Si       0.61315    0.65665    0.40757    1.000
    Si3922   Si       0.62025    0.70653    0.47043    1.000
    N3923    N        0.63940    0.67010    0.37445    1.000
    Si3924   Si       0.67634    0.67724    0.44764    1.000
    N3925    N        0.68558    0.71169    0.42029    1.000
    Si3926   Si       0.67889    0.68201    0.38769    1.000
    N3927    N        0.63225    0.67499    0.44337    1.000
    N3928    N        0.68574    0.68631    0.48860    1.000
    Si3929   Si       0.59271    0.68833    0.54336    1.000
    Si3930   Si       0.52462    0.69350    0.54667    1.000
    Si3931   Si       0.57307    0.70262    0.61228    1.000
    N3932    N        0.53457    0.69990    0.58971    1.000
    N3933    N        0.60556    0.69861    0.58313    1.000
    N3934    N        0.55569    0.70430    0.51845    1.000
    N3935    N        0.73214    0.67998    0.54104    1.000
    N3936    N        0.62078    0.69833    0.51275    1.000
    Si3937   Si       0.65948    0.68003    0.52419    1.000
    N3938    N        0.66822    0.69785    0.56258    1.000
    Si3939   Si       0.70582    0.68369    0.57770    1.000
    Si3940   Si       0.72615    0.69918    0.50370    1.000
    N3941    N        0.71896    0.70909    0.61148    1.000
    Si3942   Si       0.52077    0.67036    0.62165    1.000
    Si3943   Si       0.52802    0.69416    0.68336    1.000
    N3944    N        0.55526    0.67023    0.70875    1.000
    N3945    N        0.55930    0.67663    0.64419    1.000
    N3946    N        0.50409    0.70488    0.72343    1.000
    Si3947   Si       0.52259    0.66692    0.73944    1.000
    N3948    N        0.49964    0.66563    0.66527    1.000
    Si3949   Si       0.72421    0.67370    0.70877    1.000
    N3950    N        0.69582    0.66644    0.67482    1.000
    N3951    N        0.69462    0.66939    0.74171    1.000
    Si3952   Si       0.69106    0.68667    0.63681    1.000
    Si3953   Si       0.59653    0.67031    0.84758    1.000
    N3954    N        0.56554    0.69683    0.83369    1.000
    N3955    N        0.53075    0.67121    0.78019    1.000
    Si3956   Si       0.54806    0.70704    0.79584    1.000
    Si3957   Si       0.54610    0.71422    0.86951    1.000
    Si3958   Si       0.61906    0.68755    0.77626    1.000
    N3959    N        0.62645    0.67164    0.81579    1.000
    N3960    N        0.69222    0.68356    0.81104    1.000
    Si3961   Si       0.69076    0.70084    0.77007    1.000
    Si3962   Si       0.70719    0.71226    0.83962    1.000
    N3963    N        0.65081    0.71320    0.76604    1.000
    N3964    N        0.53305    0.68195    0.89372    1.000
    Si3965   Si       0.50669    0.69288    0.92689    1.000
    N3966    N        0.51858    0.67496    0.96555    1.000
    Si3967   Si       0.56006    0.68399    0.98437    1.000
    N3968    N        0.59414    0.66844    0.96025    1.000
    Si3969   Si       0.48886    0.68854    0.99525    1.000
    N3970    N        0.61635    0.69204    0.87845    1.000
    N3971    N        0.64597    0.70617    0.99843    1.000
    N3972    N        0.70681    0.68532    0.97496    1.000
    Si3973   Si       0.65562    0.67181    0.89098    1.000
    N3974    N        0.68142    0.70398    0.87485    1.000
    N3975    N        0.65853    0.67234    0.93500    1.000
    Si3976   Si       0.62986    0.69578    0.95898    1.000
    Si3977   Si       0.58308    0.74781    0.08139    1.000
    Si3978   Si       0.53440    0.73960    0.02061    1.000
    N3979    N        0.54365    0.75560    0.06123    1.000
    N3980    N        0.60666    0.71984    0.05472    1.000
    N3981    N        0.51079    0.76954    0.00131    1.000
    N3982    N        0.64633    0.77141    0.02856    1.000
    Si3983   Si       0.64422    0.72924    0.03557    1.000
    Si3984   Si       0.69143    0.76476    0.11758    1.000
    N3985    N        0.69594    0.72186    0.11842    1.000
    N3986    N        0.73835    0.76577    0.09795    1.000
    N3987    N        0.57601    0.73840    0.12466    1.000
    N3988    N        0.50713    0.75107    0.18736    1.000
    Si3989   Si       0.52163    0.74767    0.23039    1.000
    N3990    N        0.60170    0.75957    0.18366    1.000
    Si3991   Si       0.60487    0.76934    0.14196    1.000
    N3992    N        0.55469    0.77273    0.24253    1.000
    N3993    N        0.66955    0.73348    0.19363    1.000
    Si3994   Si       0.69802    0.76831    0.19306    1.000
    N3995    N        0.72666    0.74218    0.21414    1.000
    N3996    N        0.64699    0.75686    0.13680    1.000
    Si3997   Si       0.62651    0.73684    0.20921    1.000
    Si3998   Si       0.66507    0.72025    0.15115    1.000
    N3999    N        0.61823    0.77143    0.23849    1.000
    Si4000   Si       0.69148    0.71700    0.22655    1.000
    Si4001   Si       0.58996    0.75668    0.26712    1.000
    Si4002   Si       0.55551    0.76251    0.33448    1.000
    N4003    N        0.57351    0.72378    0.33537    1.000
    N4004    N        0.51548    0.76516    0.31521    1.000
    Si4005   Si       0.61426    0.73120    0.35251    1.000
    N4006    N        0.66859    0.73638    0.25656    1.000
    Si4007   Si       0.67745    0.72674    0.30000    1.000
    N4008    N        0.70040    0.76057    0.31659    1.000
    Si4009   Si       0.51308    0.73250    0.44211    1.000
    N4010    N        0.53908    0.74106    0.40907    1.000
    N4011    N        0.53055    0.75852    0.47399    1.000
    N4012    N        0.60530    0.72962    0.39637    1.000
    Si4013   Si       0.56390    0.74092    0.49457    1.000
    Si4014   Si       0.73886    0.76715    0.47013    1.000
    N4015    N        0.64280    0.74200    0.46476    1.000
    Si4016   Si       0.67523    0.74846    0.43633    1.000
    Si4017   Si       0.61761    0.77165    0.40066    1.000
    N4018    N        0.51874    0.76418    0.59838    1.000
    Si4019   Si       0.49361    0.72739    0.59219    1.000
    N4020    N        0.63756    0.76383    0.59190    1.000
    Si4021   Si       0.72221    0.75201    0.60677    1.000
    N4022    N        0.73011    0.74348    0.50522    1.000
    N4023    N        0.70168    0.76386    0.57181    1.000
    Si4024   Si       0.64411    0.71778    0.59361    1.000
    N4025    N        0.57979    0.74411    0.62336    1.000
    N4026    N        0.52135    0.73004    0.66159    1.000
    N4027    N        0.54937    0.76349    0.72980    1.000
    Si4028   Si       0.54104    0.75876    0.63555    1.000
    Si4029   Si       0.51249    0.74609    0.74153    1.000
    Si4030   Si       0.60954    0.77568    0.62176    1.000
    Si4031   Si       0.71930    0.74469    0.71510    1.000
    N4032    N        0.65856    0.71511    0.63522    1.000
    N4033    N        0.61774    0.76698    0.73151    1.000
    Si4034   Si       0.65760    0.75102    0.74286    1.000
    Si4035   Si       0.66923    0.74818    0.66084    1.000
    N4036    N        0.67873    0.74431    0.70222    1.000
    N4037    N        0.70195    0.76958    0.64131    1.000
    N4038    N        0.51984    0.73802    0.78466    1.000
    N4039    N        0.51249    0.73772    0.85610    1.000
    Si4040   Si       0.58582    0.75844    0.75896    1.000
    Si4041   Si       0.49399    0.75159    0.81768    1.000
    N4042    N        0.58340    0.71574    0.77169    1.000
    N4043    N        0.71325    0.73512    0.75846    1.000
    N4044    N        0.68661    0.75079    0.83345    1.000
    Si4045   Si       0.49167    0.75422    0.96391    1.000
    Si4046   Si       0.49671    0.75737    0.89082    1.000
    N4047    N        0.57377    0.74593    0.88371    1.000
    Si4048   Si       0.58080    0.75251    0.96209    1.000
    N4049    N        0.50814    0.73711    0.92707    1.000
    N4050    N        0.55862    0.72550    0.98861    1.000
    Si4051   Si       0.61173    0.73071    0.89710    1.000
    N4052    N        0.61104    0.73026    0.94120    1.000
    N4053    N        0.72585    0.75779    0.88168    1.000
    Si4054   Si       0.68563    0.74481    0.88916    1.000
    Si4055   Si       0.72435    0.71767    0.95237    1.000
    N4056    N        0.64155    0.75981    0.88723    1.000
    N4057    N        0.69286    0.74230    0.93455    1.000
    N4058    N        0.49947    0.81607    0.06177    1.000
    Si4059   Si       0.50786    0.80911    0.01754    1.000
    Si4060   Si       0.59674    0.82124    0.10011    1.000
    N4061    N        0.60666    0.78342    0.08337    1.000
    N4062    N        0.54744    0.82779    0.00923    1.000
    Si4063   Si       0.51233    0.77738    0.08280    1.000
    Si4064   Si       0.71915    0.79373    0.06763    1.000
    N4065    N        0.71903    0.78966    0.02498    1.000
    Si4066   Si       0.64347    0.80103    0.06438    1.000
    N4067    N        0.68065    0.79188    0.08636    1.000
    Si4068   Si       0.63149    0.80416    0.00162    1.000
    N4069    N        0.73880    0.83047    0.07373    1.000
    N4070    N        0.50811    0.79157    0.12348    1.000
    Si4071   Si       0.51354    0.78752    0.16600    1.000
    N4072    N        0.54874    0.80447    0.18402    1.000
    Si4073   Si       0.58407    0.78978    0.21151    1.000
    N4074    N        0.59680    0.81473    0.14269    1.000
    N4075    N        0.71281    0.78149    0.15427    1.000
    N4076    N        0.68083    0.79562    0.22206    1.000
    N4077    N        0.55232    0.79766    0.36419    1.000
    Si4078   Si       0.53331    0.79155    0.28129    1.000
    N4079    N        0.57738    0.77984    0.29981    1.000
    N4080    N        0.49726    0.79978    0.25689    1.000
    Si4081   Si       0.61325    0.80051    0.32037    1.000
    N4082    N        0.64805    0.79426    0.29513    1.000
    Si4083   Si       0.68552    0.80238    0.31316    1.000
    N4084    N        0.67898    0.82161    0.35090    1.000
    N4085    N        0.70592    0.82944    0.28464    1.000
    Si4086   Si       0.65704    0.78047    0.25447    1.000
    N4087    N        0.61529    0.77527    0.35546    1.000
    Si4088   Si       0.51112    0.79720    0.46697    1.000
    N4089    N        0.58806    0.79021    0.42387    1.000
    N4090    N        0.51362    0.80237    0.42382    1.000
    Si4091   Si       0.54713    0.78298    0.40520    1.000
    Si4092   Si       0.59719    0.82027    0.45339    1.000
    N4093    N        0.56641    0.82851    0.48172    1.000
    Si4094   Si       0.63392    0.77340    0.49487    1.000
    Si4095   Si       0.67604    0.81664    0.45954    1.000
    N4096    N        0.66086    0.77575    0.40549    1.000
    Si4097   Si       0.68747    0.80789    0.39085    1.000
    N4098    N        0.69785    0.77910    0.45798    1.000
    N4099    N        0.72716    0.79563    0.39682    1.000
    N4100    N        0.63472    0.80983    0.47177    1.000
    Si4101   Si       0.57329    0.80797    0.51973    1.000
    N4102    N        0.54692    0.81096    0.55362    1.000
    Si4103   Si       0.50990    0.80027    0.57490    1.000
    N4104    N        0.59031    0.81369    0.61188    1.000
    Si4105   Si       0.57617    0.83315    0.57751    1.000
    N4106    N        0.59258    0.77078    0.50647    1.000
    N4107    N        0.73499    0.80765    0.53079    1.000
    Si4108   Si       0.66500    0.78740    0.56706    1.000
    N4109    N        0.67071    0.82936    0.56857    1.000
    N4110    N        0.66688    0.77786    0.52356    1.000
    Si4111   Si       0.71043    0.77186    0.53011    1.000
    Si4112   Si       0.55335    0.79592    0.70313    1.000
    N4113    N        0.59115    0.82061    0.69431    1.000
    N4114    N        0.55120    0.79261    0.65892    1.000
    N4115    N        0.52686    0.82761    0.71643    1.000
    Si4116   Si       0.57547    0.83194    0.65014    1.000
    N4117    N        0.65664    0.81928    0.71318    1.000
    Si4118   Si       0.62437    0.79315    0.69741    1.000
    N4119    N        0.71766    0.83579    0.67849    1.000
    Si4120   Si       0.70952    0.81346    0.64080    1.000
    N4121    N        0.63380    0.77432    0.65940    1.000
    Si4122   Si       0.73695    0.82209    0.71279    1.000
    Si4123   Si       0.52406    0.81842    0.84646    1.000
    Si4124   Si       0.58662    0.81535    0.82085    1.000
    N4125    N        0.56680    0.81373    0.86310    1.000
    N4126    N        0.59056    0.78032    0.79546    1.000
    N4127    N        0.54771    0.82834    0.80607    1.000
    N4128    N        0.49183    0.79654    0.82405    1.000
    N4129    N        0.66769    0.78498    0.77037    1.000
    N4130    N        0.71319    0.80557    0.81604    1.000
    N4131    N        0.64457    0.81085    0.83613    1.000
    Si4132   Si       0.67476    0.78591    0.81190    1.000
    Si4133   Si       0.67288    0.82520    0.75515    1.000
    Si4134   Si       0.73135    0.77631    0.84169    1.000
    N4135    N        0.71659    0.83294    0.74907    1.000
    Si4136   Si       0.73874    0.82484    0.78462    1.000
    N4137    N        0.59519    0.78385    0.99008    1.000
    N4138    N        0.56425    0.78803    0.93753    1.000
    N4139    N        0.51343    0.79781    0.89063    1.000
    Si4140   Si       0.55822    0.78577    0.89533    1.000
    Si4141   Si       0.57148    0.81817    0.97051    1.000
    Si4142   Si       0.70456    0.81678    0.99382    1.000
    N4143    N        0.68365    0.80656    0.90287    1.000
    N4144    N        0.72786    0.79691    0.96185    1.000
    N4145    N        0.66541    0.80674    0.96912    1.000
    Si4146   Si       0.64700    0.80122    0.87887    1.000
    Si4147   Si       0.69125    0.78498    0.94304    1.000
    Si4148   Si       0.56492    0.85687    0.03556    1.000
    Si4149   Si       0.52242    0.84794    0.08103    1.000
    N4150    N        0.52958    0.87847    0.05122    1.000
    N4151    N        0.56692    0.84146    0.07748    1.000
    N4152    N        0.50854    0.85939    0.11956    1.000
    N4153    N        0.59086    0.89021    0.01878    1.000
    N4154    N        0.68546    0.86434    0.05414    1.000
    Si4155   Si       0.64286    0.86520    0.05936    1.000
    Si4156   Si       0.71515    0.86382    0.08482    1.000
    N4157    N        0.63562    0.84094    0.09446    1.000
    N4158    N        0.71643    0.85756    0.99762    1.000
    Si4159   Si       0.69383    0.88810    0.01969    1.000
    N4160    N        0.63155    0.83227    0.03406    1.000
    N4161    N        0.56132    0.88001    0.17000    1.000
    N4162    N        0.52908    0.85806    0.23483    1.000
    Si4163   Si       0.52578    0.88923    0.14408    1.000
    Si4164   Si       0.57464    0.83773    0.17160    1.000
    Si4165   Si       0.53654    0.88821    0.20618    1.000
    Si4166   Si       0.48871    0.83845    0.24101    1.000
    N4167    N        0.59708    0.83318    0.20839    1.000
    N4168    N        0.66147    0.84824    0.16981    1.000
    N4169    N        0.65812    0.85419    0.24148    1.000
    Si4170   Si       0.61644    0.86580    0.23089    1.000
    Si4171   Si       0.69389    0.87960    0.16500    1.000
    Si4172   Si       0.68025    0.83648    0.20753    1.000
    N4173    N        0.71584    0.86061    0.19807    1.000
    N4174    N        0.69651    0.87157    0.12265    1.000
    Si4175   Si       0.65243    0.86016    0.12848    1.000
    Si4176   Si       0.52518    0.86619    0.27932    1.000
    N4177    N        0.59895    0.84204    0.32760    1.000
    N4178    N        0.59547    0.88246    0.26367    1.000
    Si4179   Si       0.59737    0.88183    0.36448    1.000
    N4180    N        0.55780    0.86586    0.36932    1.000
    Si4181   Si       0.55778    0.83344    0.34134    1.000
    Si4182   Si       0.61310    0.87487    0.30289    1.000
    N4183    N        0.53608    0.83188    0.30283    1.000
    N4184    N        0.65538    0.87354    0.30703    1.000
    Si4185   Si       0.68391    0.86473    0.27515    1.000
    Si4186   Si       0.66985    0.86320    0.34697    1.000
    N4187    N        0.70787    0.88679    0.35105    1.000
    Si4188   Si       0.52514    0.88012    0.39534    1.000
    N4189    N        0.54034    0.88076    0.43652    1.000
    Si4190   Si       0.53844    0.86129    0.47799    1.000
    N4191    N        0.60667    0.85744    0.43234    1.000
    N4192    N        0.50387    0.83695    0.48747    1.000
    Si4193   Si       0.64631    0.86832    0.41866    1.000
    N4194    N        0.67678    0.83793    0.42031    1.000
    N4195    N        0.63992    0.87069    0.37554    1.000
    Si4196   Si       0.68548    0.88505    0.48911    1.000
    N4197    N        0.69898    0.84332    0.48464    1.000
    N4198    N        0.55851    0.87124    0.58617    1.000
    Si4199   Si       0.52352    0.86623    0.61414    1.000
    N4200    N        0.49787    0.83412    0.60191    1.000
    N4201    N        0.60373    0.83118    0.54340    1.000
    Si4202   Si       0.64032    0.85428    0.54820    1.000
    Si4203   Si       0.66773    0.86099    0.60087    1.000
    N4204    N        0.63168    0.87653    0.58719    1.000
    N4205    N        0.65646    0.88530    0.52263    1.000
    N4206    N        0.69561    0.89383    0.59870    1.000
    Si4207   Si       0.60821    0.86196    0.69504    1.000
    Si4208   Si       0.53641    0.86589    0.69745    1.000
    N4209    N        0.57485    0.88168    0.71431    1.000
    N4210    N        0.60110    0.86685    0.65083    1.000
    N4211    N        0.50230    0.88385    0.71542    1.000
    N4212    N        0.53707    0.85833    0.65354    1.000
    Si4213   Si       0.49153    0.84565    0.73277    1.000
    N4214    N        0.64909    0.87856    0.69226    1.000
    Si4215   Si       0.67476    0.84488    0.68119    1.000
    N4216    N        0.67398    0.83905    0.63766    1.000
    Si4217   Si       0.52054    0.86184    0.79944    1.000
    N4218    N        0.50662    0.85854    0.84118    1.000
    N4219    N        0.60375    0.85802    0.83279    1.000
    N4220    N        0.54965    0.89268    0.78741    1.000
    N4221    N        0.67815    0.86772    0.86121    1.000
    N4222    N        0.65899    0.85413    0.78690    1.000
    Si4223   Si       0.64879    0.85716    0.83128    1.000
    Si4224   Si       0.59156    0.84892    0.87602    1.000
    N4225    N        0.54793    0.85240    0.95134    1.000
    Si4226   Si       0.51222    0.87606    0.96138    1.000
    N4227    N        0.57181    0.88346    0.89238    1.000
    N4228    N        0.60966    0.84162    0.96963    1.000
    Si4229   Si       0.56756    0.88906    0.93513    1.000
    Si4230   Si       0.64078    0.83614    0.93945    1.000
    Si4231   Si       0.69653    0.84884    0.89830    1.000
    N4232    N        0.67320    0.86328    0.93213    1.000
    N4233    N        0.73808    0.84997    0.90808    1.000
    Si4234   Si       0.61909    0.88132    0.98588    1.000
    N4235    N        0.66119    0.89495    0.99232    1.000
    N4236    N        0.62132    0.82887    0.90148    1.000
    N4237    N        0.58481    0.94049    0.07709    1.000
    Si4238   Si       0.60463    0.92712    0.03952    1.000
    N4239    N        0.50107    0.94140    0.05581    1.000
    Si4240   Si       0.55951    0.94408    0.11343    1.000
    Si4241   Si       0.49677    0.90056    0.03927    1.000
    Si4242   Si       0.48986    0.94582    0.09835    1.000
    N4243    N        0.52347    0.92380    0.12104    1.000
    N4244    N        0.49162    0.89384    0.99558    1.000
    Si4245   Si       0.62271    0.92542    0.10099    1.000
    N4246    N        0.63577    0.90849    0.06363    1.000
    N4247    N        0.71369    0.92075    0.04303    1.000
    Si4248   Si       0.59700    0.90427    0.16714    1.000
    N4249    N        0.54713    0.92419    0.22906    1.000
    N4250    N        0.58457    0.94151    0.14702    1.000
    N4251    N        0.50082    0.89417    0.18078    1.000
    N4252    N        0.62020    0.89926    0.20259    1.000
    Si4253   Si       0.65317    0.92740    0.20496    1.000
    Si4254   Si       0.72487    0.94297    0.17782    1.000
    N4255    N        0.68820    0.92144    0.17972    1.000
    N4256    N        0.62478    0.89500    0.13238    1.000
    N4257    N        0.53365    0.90516    0.29218    1.000
    N4258    N        0.60066    0.90691    0.32817    1.000
    Si4259   Si       0.56958    0.91858    0.26786    1.000
    Si4260   Si       0.49434    0.92065    0.30793    1.000
    N4261    N        0.65792    0.93563    0.24859    1.000
    Si4262   Si       0.69951    0.93013    0.35557    1.000
    Si4263   Si       0.69179    0.93765    0.27478    1.000
    N4264    N        0.71061    0.89796    0.26886    1.000
    N4265    N        0.70814    0.94434    0.31578    1.000
    N4266    N        0.65843    0.93564    0.36479    1.000
    N4267    N        0.59488    0.91111    0.39718    1.000
    N4268    N        0.59743    0.91735    0.46711    1.000
    N4269    N        0.50292    0.92047    0.38871    1.000
    Si4270   Si       0.58269    0.89360    0.43369    1.000
    Si4271   Si       0.63862    0.92980    0.46201    1.000
    Si4272   Si       0.62216    0.94584    0.38678    1.000
    N4273    N        0.72703    0.94179    0.38810    1.000
    N4274    N        0.66210    0.89487    0.45171    1.000
    Si4275   Si       0.56783    0.91087    0.57249    1.000
    Si4276   Si       0.50944    0.90810    0.53068    1.000
    N4277    N        0.53056    0.93104    0.56119    1.000
    N4278    N        0.59667    0.92085    0.53975    1.000
    N4279    N        0.58346    0.92812    0.60912    1.000
    Si4280   Si       0.57432    0.92423    0.50262    1.000
    N4281    N        0.49254    0.93893    0.50352    1.000
    N4282    N        0.54222    0.89525    0.50307    1.000
    N4283    N        0.49113    0.89527    0.61594    1.000
    Si4284   Si       0.67596    0.93204    0.60497    1.000
    Si4285   Si       0.64202    0.92641    0.53575    1.000
    N4286    N        0.65820    0.94667    0.56913    1.000
    Si4287   Si       0.73821    0.90133    0.58718    1.000
    N4288    N        0.71672    0.91358    0.49857    1.000
    Si4289   Si       0.61123    0.89563    0.62098    1.000
    Si4290   Si       0.48813    0.93622    0.63055    1.000
    N4291    N        0.49518    0.93945    0.67364    1.000
    N4292    N        0.55651    0.94269    0.73698    1.000
    N4293    N        0.64718    0.91744    0.63566    1.000
    N4294    N        0.62402    0.94202    0.70278    1.000
    Si4295   Si       0.65001    0.91861    0.67833    1.000
    N4296    N        0.68582    0.93954    0.69351    1.000
    Si4297   Si       0.72822    0.95062    0.70673    1.000
    N4298    N        0.58070    0.93110    0.83514    1.000
    N4299    N        0.52224    0.92171    0.86448    1.000
    N4300    N        0.60842    0.90265    0.77460    1.000
    Si4301   Si       0.57254    0.90614    0.75024    1.000
    Si4302   Si       0.48796    0.89609    0.85578    1.000
    Si4303   Si       0.58561    0.89374    0.81066    1.000
    N4304    N        0.64606    0.90731    0.82612    1.000
    Si4305   Si       0.62377    0.93683    0.84665    1.000
    N4306    N        0.71032    0.91326    0.80648    1.000
    N4307    N        0.66858    0.92979    0.75888    1.000
    Si4308   Si       0.69177    0.90901    0.84862    1.000
    Si4309   Si       0.65103    0.89710    0.78317    1.000
    Si4310   Si       0.70376    0.94639    0.77789    1.000
    N4311    N        0.68431    0.95049    0.86339    1.000
    N4312    N        0.73644    0.90572    0.86158    1.000
    N4313    N        0.73643    0.95037    0.74878    1.000
    Si4314   Si       0.56927    0.92408    0.87893    1.000
    N4315    N        0.53341    0.91135    0.94753    1.000
    N4316    N        0.60631    0.90334    0.94946    1.000
    N4317    N        0.61480    0.93263    0.88854    1.000
    N4318    N        0.67053    0.93423    0.93347    1.000
    N4319    N        0.72761    0.90851    0.96274    1.000
    Si4320   Si       0.68404    0.89928    0.95522    1.000
    Si4321   Si       0.62692    0.93597    0.92906    1.000
    N4322    N        0.55273    0.98388    0.10602    1.000
    N4323    N        0.54568    0.98366    0.03452    1.000
    Si4324   Si       0.50330    0.97340    0.02672    1.000
    N4325    N        0.60467    0.96195    0.01601    1.000
    Si4326   Si       0.57282    0.98255    0.06739    1.000
    Si4327   Si       0.57251    0.98694    0.99947    1.000
    N4328    N        0.66517    0.98935    0.04524    1.000
    N4329    N        0.70380    0.97492    0.09078    1.000
    Si4330   Si       0.66177    0.99238    0.09113    1.000
    N4331    N        0.72071    0.98248    0.01527    1.000
    Si4332   Si       0.70172    0.96166    0.04920    1.000
    Si4333   Si       0.62720    0.99942    0.02317    1.000
    N4334    N        0.63851    0.96385    0.11387    1.000
    Si4335   Si       0.53043    0.96338    0.22038    1.000
    N4336    N        0.56529    0.99013    0.21484    1.000
    N4337    N        0.49806    0.96859    0.19345    1.000
    Si4338   Si       0.60773    0.99497    0.20484    1.000
    Si4339   Si       0.72558    0.99840    0.23019    1.000
    N4340    N        0.72282    0.98447    0.18830    1.000
    Si4341   Si       0.61695    0.97312    0.14947    1.000
    N4342    N        0.63303    0.96325    0.18919    1.000
    N4343    N        0.60301    0.97053    0.35737    1.000
    N4344    N        0.49894    0.96187    0.32752    1.000
    N4345    N        0.52057    0.98270    0.25886    1.000
    Si4346   Si       0.49697    0.99195    0.29591    1.000
    Si4347   Si       0.50768    0.96241    0.36952    1.000
    Si4348   Si       0.61402    0.95047    0.32091    1.000
    N4349    N        0.59410    0.95093    0.28059    1.000
    Si4350   Si       0.57923    0.00563    0.36825    1.000
    Si4351   Si       0.63140    0.96715    0.26507    1.000
    N4352    N        0.64586    0.97586    0.30536    1.000
    Si4353   Si       0.72278    0.98362    0.30332    1.000
    N4354    N        0.70660    0.97652    0.26211    1.000
    N4355    N        0.54023    0.98977    0.38294    1.000
    N4356    N        0.51421    0.96585    0.44180    1.000
    Si4357   Si       0.51842    0.96825    0.48370    1.000
    Si4358   Si       0.52268    0.00316    0.41853    1.000
    N4359    N        0.50168    0.00643    0.49555    1.000
    Si4360   Si       0.72147    0.95557    0.48362    1.000
    Si4361   Si       0.72719    0.96774    0.42271    1.000
    Si4362   Si       0.65877    0.98947    0.44391    1.000
    N4363    N        0.69665    0.97246    0.45361    1.000
    N4364    N        0.63531    0.95700    0.42676    1.000
    N4365    N        0.62627    0.00895    0.46939    1.000
    Si4366   Si       0.52203    0.97052    0.57723    1.000
    N4367    N        0.54923    0.00069    0.56499    1.000
    Si4368   Si       0.56645    0.99946    0.52551    1.000
    N4369    N        0.59337    0.99531    0.61260    1.000
    N4370    N        0.55724    0.96564    0.50136    1.000
    N4371    N        0.60994    0.00048    0.53649    1.000
    N4372    N        0.52280    0.96433    0.62067    1.000
    Si4373   Si       0.72798    0.97990    0.59763    1.000
    Si4374   Si       0.64118    0.99579    0.50787    1.000
    N4375    N        0.73609    0.97933    0.51663    1.000
    N4376    N        0.64854    0.95117    0.50005    1.000
    Si4377   Si       0.57056    0.96277    0.62863    1.000
    Si4378   Si       0.58495    0.96263    0.71033    1.000
    Si4379   Si       0.52103    0.97447    0.66616    1.000
    N4380    N        0.56340    0.96559    0.67122    1.000
    N4381    N        0.59364    0.00115    0.73028    1.000
    N4382    N        0.52363    0.99925    0.73932    1.000
    Si4383   Si       0.68869    0.97147    0.66317    1.000
    N4384    N        0.65092    0.99137    0.65587    1.000
    Si4385   Si       0.65940    0.95447    0.72579    1.000
    N4386    N        0.70101    0.95959    0.62389    1.000
    N4387    N        0.66640    0.99623    0.73059    1.000
    N4388    N        0.72117    0.98894    0.68571    1.000
    N4389    N        0.54294    0.98946    0.85116    1.000
    N4390    N        0.57269    0.99317    0.79026    1.000
    Si4391   Si       0.55324    0.96370    0.81845    1.000
    Si4392   Si       0.51968    0.95947    0.75453    1.000
    N4393    N        0.51493    0.95507    0.79799    1.000
    N4394    N        0.63025    0.97551    0.82952    1.000
    N4395    N        0.69802    0.98174    0.80201    1.000
    Si4396   Si       0.67239    0.98275    0.83571    1.000
    Si4397   Si       0.73144    0.00691    0.81637    1.000
    N4398    N        0.73259    0.00331    0.86051    1.000
    Si4399   Si       0.52611    0.95317    0.94787    1.000
    Si4400   Si       0.57785    0.98712    0.92746    1.000
    N4401    N        0.55295    0.98273    0.96196    1.000
    Si4402   Si       0.51631    0.96538    0.87928    1.000
    N4403    N        0.49923    0.95817    0.98675    1.000
    N4404    N        0.49352    0.96503    0.91947    1.000
    N4405    N        0.55497    0.95612    0.90451    1.000
    Si4406   Si       0.69146    0.96051    0.90673    1.000
    N4407    N        0.61852    0.97818    0.93697    1.000
    N4408    N        0.73444    0.96342    0.91486    1.000
    N4409    N        0.67697    0.00147    0.91050    1.000
    Si4410   Si       0.81718    0.02872    0.01598    1.000
    N4411    N        0.85328    0.05983    0.08614    1.000
    Si4412   Si       0.85726    0.01567    0.08405    1.000
    Si4413   Si       0.95486    0.04102    0.03108    1.000
    N4414    N        0.92473    0.00975    0.03735    1.000
    N4415    N        0.98227    0.04248    0.06458    1.000
    N4416    N        0.81586    0.04715    0.13996    1.000
    N4417    N        0.76205    0.04332    0.18000    1.000
    N4418    N        0.95287    0.03329    0.13913    1.000
    Si4419   Si       0.91114    0.02325    0.14030    1.000
    N4420    N        0.91055    0.04726    0.20745    1.000
    N4421    N        0.88426    0.05764    0.14677    1.000
    N4422    N        0.77210    0.04441    0.34747    1.000
    N4423    N        0.76627    0.05176    0.27532    1.000
    Si4424   Si       0.84901    0.02912    0.25016    1.000
    Si4425   Si       0.78174    0.01226    0.27458    1.000
    N4426    N        0.82698    0.00676    0.28069    1.000
    N4427    N        0.89014    0.03087    0.26388    1.000
    Si4428   Si       0.96458    0.05521    0.30979    1.000
    N4429    N        0.97385    0.04928    0.35349    1.000
    N4430    N        0.94642    0.01957    0.29056    1.000
    Si4431   Si       0.92161    0.05860    0.24802    1.000
    N4432    N        0.90491    0.05609    0.37020    1.000
    Si4433   Si       0.88628    0.01667    0.37081    1.000
    N4434    N        0.84817    0.01748    0.39390    1.000
    Si4435   Si       0.77278    0.01752    0.38192    1.000
    Si4436   Si       0.83118    0.05559    0.40530    1.000
    N4437    N        0.78878    0.04902    0.41117    1.000
    Si4438   Si       0.83360    0.05740    0.47566    1.000
    N4439    N        0.85860    0.01944    0.48211    1.000
    N4440    N        0.79153    0.06457    0.47641    1.000
    Si4441   Si       0.94627    0.06497    0.38187    1.000
    N4442    N        0.95389    0.04177    0.41837    1.000
    Si4443   Si       0.97969    0.05684    0.45019    1.000
    Si4444   Si       0.85031    0.04240    0.58895    1.000
    N4445    N        0.77358    0.05793    0.58783    1.000
    N4446    N        0.84764    0.02356    0.55014    1.000
    Si4447   Si       0.78418    0.01823    0.59564    1.000
    N4448    N        0.82567    0.01203    0.61234    1.000
    Si4449   Si       0.87367    0.03888    0.51888    1.000
    N4450    N        0.95854    0.05347    0.58329    1.000
    N4451    N        0.91430    0.03258    0.53052    1.000
    Si4452   Si       0.92446    0.02908    0.57231    1.000
    N4453    N        0.89164    0.04516    0.59709    1.000
    Si4454   Si       0.94834    0.02718    0.50457    1.000
    N4455    N        0.98531    0.02205    0.53154    1.000
    N4456    N        0.80397    0.05686    0.71941    1.000
    N4457    N        0.74931    0.05404    0.66745    1.000
    Si4458   Si       0.82506    0.01868    0.71059    1.000
    N4459    N        0.85768    0.03647    0.68601    1.000
    N4460    N        0.93974    0.01812    0.64275    1.000
    Si4461   Si       0.94803    0.05282    0.72269    1.000
    N4462    N        0.96628    0.01533    0.70843    1.000
    Si4463   Si       0.95998    0.05226    0.62802    1.000
    N4464    N        0.81169    0.03475    0.82440    1.000
    Si4465   Si       0.84609    0.05744    0.83634    1.000
    Si4466   Si       0.77741    0.06081    0.81926    1.000
    N4467    N        0.84037    0.02147    0.75366    1.000
    Si4468   Si       0.82044    0.06148    0.75857    1.000
    N4469    N        0.88110    0.04497    0.81356    1.000
    Si4470   Si       0.91741    0.03359    0.83657    1.000
    Si4471   Si       0.87878    0.04207    0.76790    1.000
    N4472    N        0.94858    0.06337    0.84031    1.000
    Si4473   Si       0.98790    0.04945    0.85107    1.000
    N4474    N        0.91676    0.03012    0.74925    1.000
    N4475    N        0.84282    0.05281    0.88032    1.000
    Si4476   Si       0.78796    0.04021    0.95006    1.000
    N4477    N        0.75810    0.03390    0.98358    1.000
    N4478    N        0.82298    0.02697    0.97308    1.000
    N4479    N        0.76907    0.02130    0.91605    1.000
    Si4480   Si       0.75877    0.06036    0.89632    1.000
    Si4481   Si       0.86114    0.04203    0.95760    1.000
    N4482    N        0.97220    0.01323    0.87196    1.000
    N4483    N        0.94619    0.06411    0.92537    1.000
    N4484    N        0.98031    0.04078    0.99462    1.000
    N4485    N        0.88432    0.04572    0.99436    1.000
    N4486    N        0.90900    0.03052    0.87831    1.000
    Si4487   Si       0.94591    0.02804    0.90343    1.000
    Si4488   Si       0.87001    0.01907    0.89135    1.000
    Si4489   Si       0.84096    0.08475    0.05529    1.000
    N4490    N        0.75143    0.10249    0.01896    1.000
    Si4491   Si       0.79242    0.11024    0.03079    1.000
    N4492    N        0.81055    0.11212    0.06891    1.000
    N4493    N        0.81344    0.07082    0.02438    1.000
    N4494    N        0.87241    0.10645    0.03559    1.000
    N4495    N        0.92888    0.09330    0.09941    1.000
    Si4496   Si       0.94052    0.10737    0.06012    1.000
    N4497    N        0.93617    0.07789    0.02980    1.000
    Si4498   Si       0.89806    0.08436    0.01056    1.000
    N4499    N        0.98492    0.10931    0.06118    1.000
    N4500    N        0.76960    0.10483    0.13691    1.000
    N4501    N        0.84430    0.11623    0.13315    1.000
    N4502    N        0.80470    0.10248    0.18510    1.000
    Si4503   Si       0.84174    0.12326    0.17617    1.000
    Si4504   Si       0.78700    0.07070    0.16107    1.000
    Si4505   Si       0.84744    0.07310    0.12736    1.000
    Si4506   Si       0.86289    0.09959    0.24479    1.000
    Si4507   Si       0.76752    0.12567    0.17921    1.000
    Si4508   Si       0.95222    0.07902    0.13166    1.000
    Si4509   Si       0.90010    0.07836    0.18167    1.000
    N4510    N        0.93556    0.09526    0.16810    1.000
    N4511    N        0.87081    0.10230    0.20176    1.000
    N4512    N        0.81202    0.09551    0.31084    1.000
    Si4513   Si       0.79846    0.07886    0.34773    1.000
    Si4514   Si       0.79652    0.08507    0.27135    1.000
    N4515    N        0.76389    0.11300    0.25917    1.000
    N4516    N        0.77646    0.11284    0.36592    1.000
    N4517    N        0.83771    0.07850    0.36923    1.000
    N4518    N        0.83208    0.07020    0.24963    1.000
    N4519    N        0.88271    0.11165    0.32769    1.000
    N4520    N        0.94997    0.09638    0.31392    1.000
    N4521    N        0.90368    0.09462    0.26137    1.000
    Si4522   Si       0.91403    0.11437    0.29711    1.000
    Si4523   Si       0.88030    0.09122    0.36486    1.000
    Si4524   Si       0.97262    0.11961    0.34358    1.000
    N4525    N        0.96376    0.06720    0.24712    1.000
    N4526    N        0.75023    0.10602    0.42831    1.000
    N4527    N        0.84483    0.07966    0.43929    1.000
    Si4528   Si       0.85655    0.11982    0.42838    1.000
    Si4529   Si       0.76395    0.06641    0.44266    1.000
    N4530    N        0.74649    0.11896    0.49680    1.000
    N4531    N        0.95071    0.10803    0.38078    1.000
    N4532    N        0.88791    0.11582    0.40024    1.000
    N4533    N        0.95487    0.06511    0.48634    1.000
    Si4534   Si       0.77005    0.09718    0.57325    1.000
    N4535    N        0.79445    0.09860    0.53617    1.000
    N4536    N        0.84646    0.08556    0.59570    1.000
    Si4537   Si       0.83213    0.11286    0.52161    1.000
    Si4538   Si       0.76538    0.08009    0.50767    1.000
    N4539    N        0.85548    0.07850    0.50720    1.000
    N4540    N        0.92600    0.12708    0.50916    1.000
    Si4541   Si       0.95292    0.10468    0.58641    1.000
    N4542    N        0.91076    0.10991    0.57708    1.000
    Si4543   Si       0.89025    0.08718    0.60815    1.000
    Si4544   Si       0.96297    0.10439    0.50781    1.000
    N4545    N        0.97904    0.10476    0.55083    1.000
    Si4546   Si       0.81940    0.10758    0.62041    1.000
    N4547    N        0.77709    0.11298    0.69801    1.000
    N4548    N        0.81485    0.08041    0.65472    1.000
    N4549    N        0.84444    0.11669    0.70144    1.000
    Si4550   Si       0.85253    0.07895    0.67535    1.000
    Si4551   Si       0.78475    0.07275    0.68469    1.000
    Si4552   Si       0.92523    0.10060    0.67686    1.000
    N4553    N        0.95974    0.07788    0.68806    1.000
    N4554    N        0.88742    0.08929    0.65335    1.000
    N4555    N        0.91160    0.10018    0.72134    1.000
    Si4556   Si       0.87468    0.11497    0.73298    1.000
    N4557    N        0.94490    0.09393    0.62956    1.000
    N4558    N        0.79315    0.08205    0.78445    1.000
    N4559    N        0.85245    0.10159    0.83004    1.000
    Si4560   Si       0.76952    0.11841    0.77877    1.000
    N4561    N        0.76836    0.07771    0.85641    1.000
    Si4562   Si       0.74495    0.11530    0.85615    1.000
    N4563    N        0.85918    0.08076    0.76012    1.000
    Si4564   Si       0.94332    0.10505    0.82423    1.000
    N4565    N        0.91751    0.10471    0.78916    1.000
    Si4566   Si       0.87486    0.10735    0.79397    1.000
    N4567    N        0.98246    0.10985    0.80543    1.000
    Si4568   Si       0.94069    0.11094    0.75277    1.000
    N4569    N        0.96834    0.07564    0.75268    1.000
    Si4570   Si       0.82737    0.08343    0.90842    1.000
    Si4571   Si       0.76232    0.11305    0.94000    1.000
    N4572    N        0.78783    0.07755    0.92624    1.000
    N4573    N        0.85900    0.08065    0.93906    1.000
    N4574    N        0.82504    0.12374    0.89470    1.000
    N4575    N        0.74207    0.12263    0.90098    1.000
    N4576    N        0.90949    0.12275    0.91697    1.000
    N4577    N        0.97654    0.10905    0.96235    1.000
    Si4578   Si       0.87571    0.11893    0.94476    1.000
    Si4579   Si       0.93608    0.09965    0.94543    1.000
    N4580    N        0.90721    0.10844    0.97513    1.000
    Si4581   Si       0.82877    0.13826    0.09839    1.000
    N4582    N        0.79499    0.16417    0.10984    1.000
    N4583    N        0.80695    0.14161    0.00700    1.000
    N4584    N        0.74895    0.17124    0.02600    1.000
    N4585    N        0.86228    0.16403    0.08273    1.000
    Si4586   Si       0.75895    0.14138    0.11889    1.000
    N4587    N        0.92385    0.14777    0.05346    1.000
    Si4588   Si       0.88089    0.14865    0.04639    1.000
    N4589    N        0.87429    0.17814    0.01580    1.000
    Si4590   Si       0.95142    0.17932    0.04709    1.000
    N4591    N        0.98650    0.16765    0.02049    1.000
    N4592    N        0.84437    0.16383    0.18688    1.000
    N4593    N        0.77721    0.15541    0.20765    1.000
    Si4594   Si       0.81029    0.18153    0.20661    1.000
    Si4595   Si       0.75596    0.15267    0.24393    1.000
    Si4596   Si       0.94158    0.18164    0.12820    1.000
    N4597    N        0.89175    0.18169    0.23093    1.000
    Si4598   Si       0.93218    0.17118    0.24423    1.000
    N4599    N        0.96335    0.14453    0.13842    1.000
    Si4600   Si       0.94339    0.13746    0.17506    1.000
    N4601    N        0.95480    0.14752    0.21526    1.000
    N4602    N        0.91275    0.16877    0.16469    1.000
    Si4603   Si       0.88361    0.18815    0.18919    1.000
    N4604    N        0.82657    0.15675    0.34050    1.000
    N4605    N        0.85151    0.13389    0.27009    1.000
    Si4606   Si       0.85913    0.17726    0.25962    1.000
    Si4607   Si       0.84406    0.12792    0.31230    1.000
    N4608    N        0.75516    0.18199    0.27459    1.000
    N4609    N        0.92621    0.15356    0.28533    1.000
    N4610    N        0.97682    0.16366    0.33030    1.000
    Si4611   Si       0.80182    0.14726    0.37520    1.000
    N4612    N        0.76597    0.16590    0.45845    1.000
    N4613    N        0.82093    0.14000    0.41336    1.000
    Si4614   Si       0.84715    0.17059    0.47809    1.000
    Si4615   Si       0.79735    0.16991    0.43141    1.000
    N4616    N        0.81770    0.14170    0.49190    1.000
    N4617    N        0.78222    0.18344    0.38956    1.000
    Si4618   Si       0.91554    0.14990    0.47465    1.000
    N4619    N        0.91512    0.17529    0.38911    1.000
    Si4620   Si       0.92500    0.13621    0.40383    1.000
    N4621    N        0.94519    0.14110    0.44135    1.000
    N4622    N        0.87513    0.14477    0.46154    1.000
    Si4623   Si       0.98644    0.13021    0.44183    1.000
    Si4624   Si       0.84126    0.17704    0.54836    1.000
    Si4625   Si       0.76963    0.16631    0.61172    1.000
    N4626    N        0.85811    0.13744    0.54434    1.000
    Si4627   Si       0.77557    0.15586    0.50117    1.000
    N4628    N        0.79818    0.18164    0.53699    1.000
    N4629    N        0.73879    0.17729    0.51721    1.000
    N4630    N        0.78501    0.12615    0.60141    1.000
    N4631    N        0.96396    0.14903    0.60025    1.000
    Si4632   Si       0.90213    0.13878    0.54571    1.000
    N4633    N        0.91812    0.17989    0.55509    1.000
    Si4634   Si       0.96024    0.18214    0.57271    1.000
    N4635    N        0.82146    0.17652    0.69926    1.000
    Si4636   Si       0.85521    0.15836    0.67762    1.000
    Si4637   Si       0.80765    0.13818    0.71367    1.000
    N4638    N        0.83963    0.14140    0.64014    1.000
    Si4639   Si       0.83888    0.18281    0.62382    1.000
    N4640    N        0.95058    0.15140    0.74169    1.000
    N4641    N        0.88737    0.16196    0.71134    1.000
    Si4642   Si       0.93093    0.16797    0.70658    1.000
    Si4643   Si       0.96438    0.13216    0.63917    1.000
    N4644    N        0.93917    0.14139    0.67361    1.000
    N4645    N        0.82025    0.16768    0.84008    1.000
    Si4646   Si       0.77664    0.16903    0.83089    1.000
    N4647    N        0.79419    0.14494    0.75494    1.000
    Si4648   Si       0.84142    0.13318    0.85587    1.000
    N4649    N        0.76077    0.13159    0.81919    1.000
    N4650    N        0.75700    0.17753    0.86918    1.000
    Si4651   Si       0.79715    0.18780    0.76543    1.000
    N4652    N        0.86872    0.14196    0.76870    1.000
    Si4653   Si       0.87295    0.18019    0.74984    1.000
    N4654    N        0.87328    0.16028    0.86896    1.000
    N4655    N        0.94068    0.13316    0.85499    1.000
    Si4656   Si       0.98471    0.17605    0.75470    1.000
    Si4657   Si       0.96966    0.16608    0.87200    1.000
    Si4658   Si       0.82039    0.15849    0.92205    1.000
    N4659    N        0.84907    0.15085    0.95396    1.000
    N4660    N        0.78005    0.15378    0.94224    1.000
    Si4661   Si       0.74482    0.16476    0.91059    1.000
    Si4662   Si       0.84006    0.16585    0.99311    1.000
    Si4663   Si       0.77405    0.17586    0.99003    1.000
    N4664    N        0.96754    0.17679    0.95510    1.000
    Si4665   Si       0.91167    0.15016    0.88424    1.000
    N4666    N        0.93466    0.18371    0.89214    1.000
    N4667    N        0.83212    0.22239    0.11017    1.000
    N4668    N        0.77558    0.22105    0.06750    1.000
    Si4669   Si       0.79306    0.20786    0.10645    1.000
    Si4670   Si       0.74376    0.18896    0.06465    1.000
    Si4671   Si       0.86853    0.20695    0.09314    1.000
    N4672    N        0.87464    0.23442    0.05887    1.000
    Si4673   Si       0.89087    0.21814    0.02083    1.000
    N4674    N        0.93342    0.21492    0.03054    1.000
    N4675    N        0.90660    0.20880    0.11628    1.000
    N4676    N        0.96323    0.19104    0.08646    1.000
    N4677    N        0.80557    0.22291    0.19446    1.000
    N4678    N        0.76274    0.22125    0.13616    1.000
    Si4679   Si       0.77014    0.24057    0.20902    1.000
    N4680    N        0.87672    0.22807    0.17600    1.000
    N4681    N        0.97139    0.21047    0.14387    1.000
    N4682    N        0.97795    0.24698    0.20931    1.000
    N4683    N        0.79972    0.21994    0.31352    1.000
    Si4684   Si       0.78872    0.20940    0.27191    1.000
    Si4685   Si       0.83163    0.19851    0.33165    1.000
    Si4686   Si       0.76546    0.24190    0.32772    1.000
    N4687    N        0.81742    0.18515    0.25012    1.000
    N4688    N        0.86115    0.19432    0.29943    1.000
    N4689    N        0.86416    0.22358    0.35623    1.000
    Si4690   Si       0.88469    0.22539    0.31327    1.000
    N4691    N        0.92582    0.21792    0.31286    1.000
    N4692    N        0.96357    0.19827    0.26020    1.000
    Si4693   Si       0.95256    0.18476    0.30241    1.000
    N4694    N        0.98844    0.23367    0.33120    1.000
    Si4695   Si       0.80949    0.23737    0.44285    1.000
    N4696    N        0.76542    0.23725    0.43684    1.000
    N4697    N        0.82579    0.19719    0.45017    1.000
    Si4698   Si       0.75420    0.21716    0.39700    1.000
    N4699    N        0.87923    0.23322    0.41683    1.000
    Si4700   Si       0.89703    0.21201    0.38376    1.000
    Si4701   Si       0.95458    0.22163    0.47795    1.000
    N4702    N        0.93044    0.24000    0.37673    1.000
    N4703    N        0.92399    0.19164    0.48278    1.000
    Si4704   Si       0.76122    0.20179    0.54685    1.000
    Si4705   Si       0.84999    0.23789    0.50716    1.000
    N4706    N        0.85929    0.19018    0.58588    1.000
    N4707    N        0.79787    0.19566    0.62023    1.000
    N4708    N        0.74332    0.18612    0.58290    1.000
    N4709    N        0.85982    0.19613    0.51217    1.000
    N4710    N        0.90417    0.24025    0.56143    1.000
    N4711    N        0.96941    0.22632    0.58204    1.000
    Si4712   Si       0.89968    0.20448    0.58652    1.000
    Si4713   Si       0.90755    0.21198    0.52171    1.000
    N4714    N        0.95471    0.23181    0.52041    1.000
    N4715    N        0.78901    0.23496    0.67071    1.000
    N4716    N        0.77657    0.21086    0.73395    1.000
    Si4717   Si       0.81048    0.21815    0.70533    1.000
    Si4718   Si       0.78261    0.23653    0.62542    1.000
    N4719    N        0.86605    0.19532    0.65452    1.000
    N4720    N        0.93415    0.20934    0.69146    1.000
    Si4721   Si       0.97508    0.22844    0.69551    1.000
    N4722    N        0.98651    0.23235    0.65282    1.000
    Si4723   Si       0.95755    0.23650    0.62246    1.000
    N4724    N        0.91975    0.21316    0.62346    1.000
    Si4725   Si       0.90072    0.22035    0.66231    1.000
    N4726    N        0.77088    0.19622    0.79894    1.000
    N4727    N        0.83678    0.20335    0.76189    1.000
    Si4728   Si       0.84706    0.19389    0.86573    1.000
    Si4729   Si       0.76722    0.24039    0.80054    1.000
    Si4730   Si       0.74578    0.22004    0.87026    1.000
    N4731    N        0.86265    0.23001    0.84679    1.000
    N4732    N        0.97220    0.21208    0.77898    1.000
    Si4733   Si       0.93502    0.23263    0.77480    1.000
    N4734    N        0.90637    0.20402    0.76109    1.000
    Si4735   Si       0.74067    0.23907    0.94347    1.000
    N4736    N        0.81284    0.20058    0.98838    1.000
    Si4737   Si       0.80696    0.23687    0.91229    1.000
    N4738    N        0.76348    0.22949    0.90805    1.000
    N4739    N        0.74688    0.20505    0.96933    1.000
    N4740    N        0.82605    0.19858    0.90390    1.000
    Si4741   Si       0.82942    0.24132    0.98893    1.000
    N4742    N        0.87331    0.24625    0.98993    1.000
    N4743    N        0.92212    0.22450    0.94798    1.000
    Si4744   Si       0.95272    0.20491    0.92554    1.000
    N4745    N        0.80755    0.26322    0.01818    1.000
    Si4746   Si       0.83386    0.26754    0.11123    1.000
    N4747    N        0.83751    0.29068    0.07352    1.000
    Si4748   Si       0.76878    0.25677    0.03717    1.000
    Si4749   Si       0.80940    0.30029    0.04145    1.000
    N4750    N        0.76919    0.29970    0.05379    1.000
    Si4751   Si       0.88247    0.27600    0.07238    1.000
    N4752    N        0.92300    0.28038    0.05718    1.000
    N4753    N        0.97138    0.26953    0.01287    1.000
    Si4754   Si       0.95567    0.25179    0.04872    1.000
    N4755    N        0.98113    0.25642    0.08379    1.000
    N4756    N        0.87766    0.26840    0.11661    1.000
    Si4757   Si       0.99300    0.29093    0.11079    1.000
    N4758    N        0.75395    0.27249    0.18522    1.000
    Si4759   Si       0.75835    0.26350    0.14322    1.000
    N4760    N        0.79892    0.27870    0.13323    1.000
    N4761    N        0.84029    0.28842    0.18806    1.000
    Si4762   Si       0.84159    0.24639    0.19594    1.000
    N4763    N        0.85003    0.24573    0.23950    1.000
    N4764    N        0.88818    0.30014    0.24144    1.000
    N4765    N        0.93448    0.26363    0.16051    1.000
    Si4766   Si       0.98252    0.28540    0.23186    1.000
    Si4767   Si       0.97442    0.24745    0.16630    1.000
    Si4768   Si       0.90196    0.24230    0.14238    1.000
    Si4769   Si       0.77861    0.28514    0.26990    1.000
    N4770    N        0.76454    0.28083    0.31074    1.000
    Si4771   Si       0.85839    0.27817    0.26514    1.000
    N4772    N        0.77579    0.24571    0.25282    1.000
    N4773    N        0.82022    0.30179    0.26520    1.000
    N4774    N        0.87561    0.26567    0.30163    1.000
    N4775    N        0.94311    0.28796    0.32916    1.000
    Si4776   Si       0.89946    0.29313    0.32736    1.000
    N4777    N        0.95748    0.29679    0.26706    1.000
    N4778    N        0.87735    0.29349    0.36700    1.000
    Si4779   Si       0.94793    0.24532    0.33774    1.000
    N4780    N        0.76638    0.24764    0.37012    1.000
    Si4781   Si       0.74226    0.27186    0.44916    1.000
    Si4782   Si       0.83740    0.29236    0.44621    1.000
    N4783    N        0.75555    0.28644    0.48734    1.000
    N4784    N        0.82722    0.25898    0.47443    1.000
    N4785    N        0.82342    0.26933    0.41125    1.000
    Si4786   Si       0.78571    0.28102    0.39078    1.000
    Si4787   Si       0.85753    0.25798    0.38542    1.000
    N4788    N        0.75533    0.29998    0.41704    1.000
    N4789    N        0.93987    0.24618    0.44749    1.000
    N4790    N        0.97324    0.28841    0.40234    1.000
    N4791    N        0.89132    0.24823    0.49533    1.000
    N4792    N        0.88161    0.29440    0.44636    1.000
    Si4793   Si       0.89711    0.25350    0.45275    1.000
    Si4794   Si       0.95879    0.24773    0.40954    1.000
    Si4795   Si       0.80115    0.26613    0.55767    1.000
    N4796    N        0.80110    0.26824    0.60303    1.000
    N4797    N        0.83878    0.25090    0.54562    1.000
    Si4798   Si       0.82970    0.29722    0.62098    1.000
    Si4799   Si       0.73669    0.27216    0.52386    1.000
    N4800    N        0.76437    0.24604    0.54708    1.000
    Si4801   Si       0.94587    0.25382    0.55577    1.000
    N4802    N        0.86981    0.28500    0.60636    1.000
    Si4803   Si       0.87311    0.27074    0.56523    1.000
    N4804    N        0.94834    0.29854    0.55327    1.000
    N4805    N        0.94034    0.27543    0.61811    1.000
    Si4806   Si       0.96480    0.30094    0.59441    1.000
    N4807    N        0.74205    0.25496    0.63577    1.000
    Si4808   Si       0.75201    0.25531    0.67823    1.000
    Si4809   Si       0.85680    0.27932    0.69130    1.000
    N4810    N        0.76386    0.29667    0.69000    1.000
    N4811    N        0.83675    0.25059    0.71738    1.000
    N4812    N        0.82941    0.30219    0.66503    1.000
    Si4813   Si       0.90220    0.28728    0.63621    1.000
    Si4814   Si       0.97235    0.28243    0.74414    1.000
    N4815    N        0.88809    0.26181    0.66689    1.000
    N4816    N        0.80175    0.26018    0.78312    1.000
    Si4817   Si       0.78857    0.28718    0.86039    1.000
    N4818    N        0.76708    0.24891    0.84373    1.000
    Si4819   Si       0.83817    0.24691    0.75987    1.000
    N4820    N        0.87253    0.26561    0.77711    1.000
    N4821    N        0.88376    0.28759    0.84542    1.000
    Si4822   Si       0.96548    0.27172    0.82418    1.000
    Si4823   Si       0.88613    0.25502    0.81694    1.000
    Si4824   Si       0.89725    0.29286    0.75240    1.000
    N4825    N        0.98213    0.28399    0.78617    1.000
    N4826    N        0.92885    0.24960    0.81286    1.000
    N4827    N        0.95552    0.30080    0.85488    1.000
    N4828    N        0.93184    0.26778    0.74600    1.000
    N4829    N        0.74795    0.28124    0.95200    1.000
    N4830    N        0.82014    0.26928    0.88706    1.000
    N4831    N        0.82000    0.25792    0.94971    1.000
    Si4832   Si       0.83815    0.29229    0.92771    1.000
    Si4833   Si       0.86192    0.26440    0.87560    1.000
    N4834    N        0.75589    0.30513    0.88413    1.000
    N4835    N        0.87450    0.27163    0.91636    1.000
    N4836    N        0.92534    0.29172    0.95730    1.000
    Si4837   Si       0.95772    0.30062    0.98691    1.000
    Si4838   Si       0.89634    0.25879    0.95404    1.000
    N4839    N        0.82583    0.33057    0.01627    1.000
    Si4840   Si       0.85658    0.34696    0.04200    1.000
    Si4841   Si       0.73882    0.32842    0.04746    1.000
    Si4842   Si       0.86670    0.34655    0.10276    1.000
    N4843    N        0.93909    0.33252    0.01045    1.000
    Si4844   Si       0.92930    0.32199    0.05098    1.000
    N4845    N        0.96079    0.34562    0.06962    1.000
    N4846    N        0.88809    0.33001    0.06544    1.000
    Si4847   Si       0.94898    0.35679    0.10910    1.000
    Si4848   Si       0.81458    0.31135    0.15938    1.000
    N4849    N        0.84255    0.33371    0.13594    1.000
    N4850    N        0.78541    0.33528    0.17917    1.000
    N4851    N        0.84933    0.35172    0.22221    1.000
    Si4852   Si       0.74576    0.34409    0.16603    1.000
    Si4853   Si       0.96216    0.35675    0.21178    1.000
    N4854    N        0.90150    0.32529    0.17875    1.000
    N4855    N        0.96325    0.31748    0.13008    1.000
    Si4856   Si       0.93938    0.30683    0.16667    1.000
    N4857    N        0.96386    0.31258    0.20141    1.000
    Si4858   Si       0.86912    0.31687    0.20609    1.000
    N4859    N        0.93630    0.35647    0.24825    1.000
    Si4860   Si       0.82483    0.34386    0.26033    1.000
    Si4861   Si       0.76239    0.31659    0.33748    1.000
    N4862    N        0.77031    0.34615    0.30717    1.000
    N4863    N        0.74895    0.31028    0.25099    1.000
    N4864    N        0.79439    0.31372    0.36468    1.000
    Si4865   Si       0.73945    0.34563    0.27548    1.000
    N4866    N        0.96806    0.35378    0.30770    1.000
    Si4867   Si       0.92006    0.31941    0.26248    1.000
    N4868    N        0.89893    0.32885    0.30124    1.000
    Si4869   Si       0.97315    0.30969    0.30484    1.000
    N4870    N        0.88518    0.36343    0.35805    1.000
    N4871    N        0.84166    0.34352    0.40909    1.000
    N4872    N        0.81580    0.32467    0.46737    1.000
    Si4873   Si       0.80766    0.34920    0.38382    1.000
    Si4874   Si       0.83707    0.35849    0.45048    1.000
    Si4875   Si       0.73872    0.33827    0.40356    1.000
    N4876    N        0.95795    0.36119    0.37349    1.000
    Si4877   Si       0.90426    0.33046    0.45575    1.000
    N4878    N        0.87423    0.35799    0.47518    1.000
    N4879    N        0.98042    0.35473    0.43882    1.000
    N4880    N        0.90750    0.34579    0.41536    1.000
    Si4881   Si       0.97588    0.33250    0.40157    1.000
    N4882    N        0.93461    0.32698    0.48906    1.000
    Si4883   Si       0.87726    0.32953    0.38897    1.000
    Si4884   Si       0.97149    0.34627    0.48108    1.000
    N4885    N        0.83013    0.33513    0.59921    1.000
    Si4886   Si       0.80167    0.35068    0.55039    1.000
    N4887    N        0.77895    0.35751    0.51243    1.000
    N4888    N        0.79789    0.30685    0.54130    1.000
    Si4889   Si       0.78834    0.31561    0.49900    1.000
    Si4890   Si       0.86728    0.33975    0.57286    1.000
    N4891    N        0.84311    0.36389    0.54227    1.000
    Si4892   Si       0.92138    0.32345    0.53103    1.000
    N4893    N        0.88408    0.30848    0.54528    1.000
    N4894    N        0.96059    0.34073    0.61345    1.000
    N4895    N        0.89479    0.36179    0.59904    1.000
    N4896    N        0.80600    0.35933    0.69737    1.000
    N4897    N        0.78061    0.34295    0.63786    1.000
    Si4898   Si       0.79435    0.32428    0.67619    1.000
    Si4899   Si       0.73847    0.35255    0.63344    1.000
    Si4900   Si       0.97460    0.36126    0.71626    1.000
    Si4901   Si       0.92266    0.35709    0.63103    1.000
    N4902    N        0.87831    0.31034    0.71369    1.000
    N4903    N        0.97666    0.32411    0.73878    1.000
    N4904    N        0.90890    0.32450    0.65493    1.000
    Si4905   Si       0.89717    0.34281    0.69222    1.000
    N4906    N        0.82486    0.32376    0.76746    1.000
    Si4907   Si       0.82494    0.35100    0.84168    1.000
    N4908    N        0.75875    0.31655    0.79853    1.000
    Si4909   Si       0.75083    0.35207    0.82297    1.000
    Si4910   Si       0.85739    0.35138    0.77192    1.000
    N4911    N        0.81427    0.30937    0.83456    1.000
    Si4912   Si       0.80034    0.30210    0.79393    1.000
    Si4913   Si       0.91549    0.31464    0.85732    1.000
    N4914    N        0.89770    0.33004    0.77686    1.000
    N4915    N        0.90857    0.35537    0.83880    1.000
    N4916    N        0.96476    0.35413    0.79709    1.000
    Si4917   Si       0.92194    0.35811    0.79838    1.000
    Si4918   Si       0.76423    0.31196    0.92627    1.000
    N4919    N        0.80690    0.32511    0.92170    1.000
    Si4920   Si       0.84229    0.34837    0.97985    1.000
    N4921    N        0.74965    0.34983    0.94017    1.000
    N4922    N        0.86312    0.32063    0.95394    1.000
    N4923    N        0.97692    0.34150    0.91363    1.000
    N4924    N        0.90389    0.33018    0.89599    1.000
    Si4925   Si       0.90285    0.32191    0.93664    1.000
    N4926    N        0.92256    0.36022    0.95013    1.000
    Si4927   Si       0.76076    0.40394    0.03522    1.000
    N4928    N        0.75242    0.36825    0.06031    1.000
    N4929    N        0.83977    0.36748    0.07551    1.000
    Si4930   Si       0.83455    0.41096    0.07470    1.000
    N4931    N        0.79997    0.41545    0.04766    1.000
    N4932    N        0.95840    0.40179    0.11281    1.000
    N4933    N        0.87405    0.36854    0.00727    1.000
    Si4934   Si       0.87896    0.41237    0.01409    1.000
    N4935    N        0.92013    0.41118    0.99964    1.000
    N4936    N        0.75894    0.40366    0.12419    1.000
    Si4937   Si       0.78684    0.37304    0.20163    1.000
    Si4938   Si       0.85352    0.39457    0.21670    1.000
    N4939    N        0.81583    0.40581    0.19851    1.000
    N4940    N        0.74762    0.38269    0.18543    1.000
    Si4941   Si       0.73882    0.41781    0.16237    1.000
    N4942    N        0.94731    0.37348    0.17553    1.000
    Si4943   Si       0.90335    0.36638    0.16433    1.000
    N4944    N        0.90516    0.36176    0.12153    1.000
    N4945    N        0.88317    0.39642    0.18525    1.000
    Si4946   Si       0.96168    0.40905    0.15479    1.000
    Si4947   Si       0.78002    0.38476    0.32584    1.000
    N4948    N        0.81240    0.38363    0.35635    1.000
    Si4949   Si       0.83764    0.40811    0.29228    1.000
    Si4950   Si       0.77124    0.40248    0.26096    1.000
    N4951    N        0.79430    0.41448    0.29529    1.000
    N4952    N        0.84355    0.36422    0.29479    1.000
    N4953    N        0.85794    0.41459    0.25442    1.000
    N4954    N        0.73973    0.39605    0.33627    1.000
    N4955    N        0.79045    0.36762    0.24445    1.000
    Si4956   Si       0.98545    0.37365    0.34387    1.000
    N4957    N        0.90771    0.39545    0.29441    1.000
    Si4958   Si       0.94547    0.37894    0.28283    1.000
    Si4959   Si       0.88230    0.36617    0.31534    1.000
    N4960    N        0.98381    0.41781    0.34751    1.000
    N4961    N        0.77639    0.36214    0.41070    1.000
    N4962    N        0.81935    0.39669    0.45210    1.000
    Si4963   Si       0.77939    0.39590    0.43764    1.000
    N4964    N        0.75169    0.40455    0.46986    1.000
    N4965    N        0.91920    0.41949    0.38558    1.000
    Si4966   Si       0.91972    0.37390    0.38428    1.000
    Si4967   Si       0.98755    0.42100    0.48627    1.000
    Si4968   Si       0.75267    0.38891    0.51010    1.000
    N4969    N        0.78098    0.37687    0.57980    1.000
    Si4970   Si       0.80553    0.36925    0.61371    1.000
    Si4971   Si       0.75060    0.41048    0.58086    1.000
    N4972    N        0.85921    0.41654    0.50709    1.000
    Si4973   Si       0.87195    0.37529    0.51379    1.000
    Si4974   Si       0.98148    0.40727    0.54796    1.000
    Si4975   Si       0.91191    0.39234    0.57261    1.000
    N4976    N        0.97888    0.38353    0.50763    1.000
    N4977    N        0.95150    0.40888    0.58092    1.000
    N4978    N        0.90889    0.36580    0.53740    1.000
    Si4979   Si       0.96507    0.41927    0.62064    1.000
    N4980    N        0.82413    0.40713    0.62746    1.000
    Si4981   Si       0.76655    0.38230    0.69333    1.000
    N4982    N        0.75539    0.39778    0.73327    1.000
    Si4983   Si       0.84137    0.38205    0.70310    1.000
    N4984    N        0.77002    0.41697    0.66647    1.000
    Si4985   Si       0.90817    0.39365    0.73499    1.000
    N4986    N        0.92947    0.36221    0.71288    1.000
    N4987    N        0.93515    0.39691    0.64369    1.000
    N4988    N        0.87417    0.37920    0.67554    1.000
    N4989    N        0.86623    0.37912    0.73940    1.000
    Si4990   Si       0.90046    0.41363    0.66774    1.000
    Si4991   Si       0.78629    0.40758    0.85774    1.000
    N4992    N        0.84651    0.37315    0.80808    1.000
    N4993    N        0.78669    0.36928    0.83986    1.000
    N4994    N        0.74380    0.41428    0.85500    1.000
    Si4995   Si       0.83405    0.41762    0.80313    1.000
    N4996    N        0.81016    0.42236    0.76939    1.000
    N4997    N        0.92346    0.39625    0.77659    1.000
    Si4998   Si       0.97822    0.39417    0.78295    1.000
    N4999    N        0.79638    0.40133    0.89938    1.000
    N5000    N        0.82810    0.38026    0.95442    1.000
    Si5001   Si       0.82074    0.36559    0.91318    1.000
    N5002    N        0.74884    0.39735    0.99256    1.000
    N5003    N        0.84709    0.36354    0.87809    1.000
    Si5004   Si       0.94789    0.37568    0.91880    1.000
    N5005    N        0.91930    0.39530    0.89088    1.000
    N5006    N        0.96915    0.41378    0.92927    1.000
    Si5007   Si       0.91787    0.36715    0.99204    1.000
    Si5008   Si       0.88936    0.36855    0.87704    1.000
    Si5009   Si       0.85356    0.46347    0.10987    1.000
    N5010    N        0.82984    0.42731    0.11485    1.000
    Si5011   Si       0.84446    0.47247    0.02401    1.000
    Si5012   Si       0.74863    0.47223    0.07151    1.000
    N5013    N        0.77617    0.47235    0.10818    1.000
    N5014    N        0.83708    0.47394    0.06889    1.000
    N5015    N        0.84622    0.43529    0.99950    1.000
    N5016    N        0.87623    0.42075    0.05745    1.000
    Si5017   Si       0.90166    0.45723    0.06339    1.000
    Si5018   Si       0.97183    0.43403    0.08606    1.000
    N5019    N        0.94149    0.44467    0.05460    1.000
    Si5020   Si       0.94888    0.44439    0.01004    1.000
    N5021    N        0.89550    0.46772    0.10619    1.000
    N5022    N        0.97116    0.46754    0.11425    1.000
    Si5023   Si       0.78896    0.43411    0.12707    1.000
    N5024    N        0.76502    0.43767    0.23567    1.000
    N5025    N        0.77147    0.44862    0.16697    1.000
    Si5026   Si       0.79347    0.44344    0.20391    1.000
    N5027    N        0.87729    0.46969    0.18855    1.000
    Si5028   Si       0.92994    0.47253    0.13370    1.000
    N5029    N        0.93382    0.44084    0.16291    1.000
    N5030    N        0.92196    0.43479    0.23137    1.000
    Si5031   Si       0.90354    0.43490    0.19286    1.000
    Si5032   Si       0.79035    0.45828    0.30920    1.000
    N5033    N        0.79012    0.45076    0.35205    1.000
    N5034    N        0.85093    0.43102    0.32697    1.000
    N5035    N        0.75026    0.46615    0.29758    1.000
    Si5036   Si       0.82473    0.42476    0.36264    1.000
    Si5037   Si       0.86006    0.47199    0.31587    1.000
    Si5038   Si       0.73866    0.46689    0.25444    1.000
    Si5039   Si       0.89743    0.42755    0.26637    1.000
    N5040    N        0.88983    0.46725    0.28336    1.000
    Si5041   Si       0.95812    0.44899    0.25147    1.000
    Si5042   Si       0.95217    0.44304    0.36679    1.000
    N5043    N        0.94207    0.47923    0.34667    1.000
    N5044    N        0.96759    0.41690    0.27941    1.000
    Si5045   Si       0.76299    0.46123    0.38397    1.000
    N5046    N        0.77340    0.43465    0.42010    1.000
    N5047    N        0.84397    0.44419    0.39633    1.000
    N5048    N        0.82493    0.46314    0.46320    1.000
    Si5049   Si       0.81227    0.45981    0.42318    1.000
    Si5050   Si       0.84750    0.42639    0.46686    1.000
    Si5051   Si       0.74475    0.44476    0.45484    1.000
    N5052    N        0.95826    0.44140    0.46366    1.000
    N5053    N        0.88667    0.43407    0.44929    1.000
    Si5054   Si       0.91719    0.44917    0.47621    1.000
    Si5055   Si       0.88795    0.44242    0.40643    1.000
    Si5056   Si       0.97702    0.47145    0.43765    1.000
    N5057    N        0.98026    0.45541    0.39862    1.000
    N5058    N        0.83322    0.46300    0.58589    1.000
    Si5059   Si       0.85481    0.43245    0.60695    1.000
    N5060    N        0.76006    0.44889    0.60762    1.000
    Si5061   Si       0.74944    0.45835    0.51807    1.000
    N5062    N        0.76168    0.42079    0.53765    1.000
    N5063    N        0.88317    0.42250    0.57453    1.000
    N5064    N        0.92010    0.44007    0.51870    1.000
    Si5065   Si       0.88131    0.44348    0.53645    1.000
    N5066    N        0.78069    0.45915    0.72916    1.000
    Si5067   Si       0.81135    0.43113    0.66076    1.000
    Si5068   Si       0.82147    0.44830    0.73669    1.000
    N5069    N        0.80842    0.47333    0.64666    1.000
    N5070    N        0.82901    0.42393    0.70165    1.000
    Si5071   Si       0.74373    0.44628    0.65058    1.000
    Si5072   Si       0.93359    0.46348    0.71911    1.000
    N5073    N        0.97468    0.46963    0.72988    1.000
    N5074    N        0.98484    0.45677    0.63367    1.000
    N5075    N        0.87846    0.44504    0.64381    1.000
    N5076    N        0.91592    0.42664    0.70664    1.000
    N5077    N        0.80878    0.43453    0.83450    1.000
    Si5078   Si       0.76767    0.42985    0.75717    1.000
    Si5079   Si       0.81393    0.47348    0.85730    1.000
    N5080    N        0.85545    0.46873    0.86852    1.000
    N5081    N        0.74088    0.44767    0.78824    1.000
    N5082    N        0.84523    0.48195    0.74837    1.000
    N5083    N        0.87079    0.44123    0.79683    1.000
    Si5084   Si       0.96595    0.47295    0.77174    1.000
    N5085    N        0.92109    0.46719    0.76175    1.000
    Si5086   Si       0.91943    0.43651    0.79454    1.000
    N5087    N        0.91580    0.44370    0.83720    1.000
    N5088    N        0.96755    0.43744    0.79556    1.000
    Si5089   Si       0.87644    0.46834    0.83158    1.000
    N5090    N        0.98023    0.43458    0.86828    1.000
    Si5091   Si       0.78075    0.43784    0.91544    1.000
    N5092    N        0.78443    0.47410    0.89003    1.000
    N5093    N        0.79759    0.44616    0.95397    1.000
    Si5094   Si       0.83441    0.42362    0.95928    1.000
    N5095    N        0.86570    0.43855    0.93288    1.000
    Si5096   Si       0.93463    0.43267    0.87567    1.000
    N5097    N        0.92051    0.46548    0.90054    1.000
    Si5098   Si       0.87558    0.47010    0.90593    1.000
    N5099    N        0.77650    0.49944    0.05221    1.000
    Si5100   Si       0.80588    0.49625    0.08714    1.000
    Si5101   Si       0.79219    0.52702    0.02455    1.000
    N5102    N        0.81866    0.49893    0.99691    1.000
    N5103    N        0.81755    0.53724    0.09287    1.000
    N5104    N        0.94267    0.53665    0.02545    1.000
    Si5105   Si       0.91407    0.50778    0.00716    1.000
    Si5106   Si       0.97944    0.51790    0.00092    1.000
    N5107    N        0.88721    0.48178    0.02826    1.000
    Si5108   Si       0.84145    0.53796    0.13423    1.000
    N5109    N        0.77479    0.51963    0.17288    1.000
    Si5110   Si       0.78378    0.51995    0.21878    1.000
    Si5111   Si       0.83972    0.48927    0.17759    1.000
    N5112    N        0.83375    0.49212    0.13525    1.000
    Si5113   Si       0.76378    0.48625    0.14801    1.000
    N5114    N        0.81238    0.48186    0.21074    1.000
    N5115    N        0.86109    0.52800    0.17572    1.000
    N5116    N        0.75333    0.50617    0.24671    1.000
    Si5117   Si       0.89874    0.50964    0.18736    1.000
    N5118    N        0.92518    0.51141    0.15334    1.000
    N5119    N        0.92316    0.51174    0.22372    1.000
    Si5120   Si       0.95617    0.53565    0.23760    1.000
    Si5121   Si       0.83372    0.52283    0.27992    1.000
    N5122    N        0.82201    0.48515    0.29799    1.000
    N5123    N        0.87226    0.50323    0.34390    1.000
    Si5124   Si       0.91214    0.50399    0.26853    1.000
    Si5125   Si       0.96923    0.49455    0.31573    1.000
    Si5126   Si       0.90991    0.50080    0.36564    1.000
    N5127    N        0.87610    0.53037    0.27371    1.000
    N5128    N        0.98188    0.53406    0.32692    1.000
    N5129    N        0.95053    0.48406    0.27725    1.000
    Si5130   Si       0.80430    0.49539    0.48341    1.000
    N5131    N        0.78761    0.49211    0.40590    1.000
    N5132    N        0.81246    0.52991    0.45609    1.000
    Si5133   Si       0.78224    0.52907    0.42487    1.000
    N5134    N        0.76009    0.47917    0.47736    1.000
    Si5135   Si       0.91647    0.51171    0.43645    1.000
    N5136    N        0.90423    0.48332    0.40436    1.000
    N5137    N        0.91007    0.49310    0.47651    1.000
    N5138    N        0.96112    0.51463    0.43484    1.000
    N5139    N        0.79480    0.51523    0.58776    1.000
    Si5140   Si       0.83586    0.49640    0.55720    1.000
    Si5141   Si       0.77296    0.52069    0.54826    1.000
    N5142    N        0.80504    0.49868    0.52639    1.000
    N5143    N        0.74465    0.48773    0.55055    1.000
    Si5144   Si       0.79631    0.47409    0.60601    1.000
    Si5145   Si       0.96716    0.53289    0.54954    1.000
    Si5146   Si       0.89393    0.51549    0.51146    1.000
    N5147    N        0.92338    0.52581    0.54289    1.000
    N5148    N        0.97833    0.49887    0.57478    1.000
    Si5149   Si       0.89679    0.52721    0.58006    1.000
    N5150    N        0.87132    0.48607    0.53584    1.000
    Si5151   Si       0.98564    0.49653    0.61755    1.000
    N5152    N        0.89761    0.50937    0.62180    1.000
    Si5153   Si       0.76066    0.49554    0.71435    1.000
    Si5154   Si       0.81897    0.50846    0.66842    1.000
    N5155    N        0.79682    0.51753    0.70352    1.000
    Si5156   Si       0.84355    0.52160    0.72977    1.000
    N5157    N        0.85844    0.50275    0.68720    1.000
    N5158    N        0.88881    0.52790    0.74090    1.000
    N5159    N        0.95997    0.52397    0.63884    1.000
    Si5160   Si       0.91159    0.53289    0.70598    1.000
    N5161    N        0.92552    0.49401    0.68833    1.000
    Si5162   Si       0.96304    0.51360    0.68038    1.000
    Si5163   Si       0.88901    0.48671    0.65981    1.000
    N5164    N        0.81128    0.50796    0.83217    1.000
    Si5165   Si       0.77300    0.53135    0.83650    1.000
    Si5166   Si       0.84111    0.53195    0.81082    1.000
    N5167    N        0.73867    0.51098    0.74899    1.000
    Si5168   Si       0.90057    0.53758    0.83176    1.000
    N5169    N        0.92698    0.52162    0.86027    1.000
    N5170    N        0.87680    0.50516    0.80979    1.000
    N5171    N        0.97618    0.50942    0.79742    1.000
    Si5172   Si       0.88233    0.49049    0.76692    1.000
    Si5173   Si       0.76244    0.50943    0.90192    1.000
    N5174    N        0.77748    0.51410    0.94280    1.000
    Si5175   Si       0.84371    0.53307    0.98759    1.000
    Si5176   Si       0.78307    0.48292    0.97204    1.000
    N5177    N        0.93566    0.53717    0.92473    1.000
    N5178    N        0.94909    0.48370    0.99427    1.000
    Si5179   Si       0.94124    0.50346    0.89873    1.000
    N5180    N        0.98291    0.48683    0.90850    1.000
    N5181    N        0.87072    0.50969    0.92335    1.000
    N5182    N        0.88803    0.53336    0.98239    1.000
    Si5183   Si       0.89545    0.53936    0.94076    1.000
    Si5184   Si       0.81619    0.57017    0.06371    1.000
    N5185    N        0.77311    0.57634    0.05908    1.000
    N5186    N        0.82809    0.55192    0.02702    1.000
    Si5187   Si       0.76556    0.59048    0.01822    1.000
    N5188    N        0.76689    0.55089    0.99897    1.000
    Si5189   Si       0.87072    0.59042    0.09510    1.000
    Si5190   Si       0.93854    0.56426    0.05750    1.000
    N5191    N        0.94671    0.54780    0.09701    1.000
    N5192    N        0.90025    0.58568    0.05975    1.000
    N5193    N        0.87896    0.55029    0.11272    1.000
    Si5194   Si       0.98823    0.54985    0.11033    1.000
    N5195    N        0.76821    0.56785    0.20903    1.000
    N5196    N        0.81171    0.56750    0.14905    1.000
    Si5197   Si       0.77165    0.56248    0.16587    1.000
    Si5198   Si       0.82950    0.58136    0.24337    1.000
    Si5199   Si       0.75962    0.59469    0.24172    1.000
    N5200    N        0.81637    0.53808    0.24223    1.000
    N5201    N        0.73959    0.58313    0.14690    1.000
    Si5202   Si       0.91885    0.54800    0.12845    1.000
    N5203    N        0.95687    0.57304    0.21536    1.000
    Si5204   Si       0.96234    0.58768    0.17366    1.000
    N5205    N        0.92494    0.58598    0.15049    1.000
    N5206    N        0.82498    0.55181    0.31409    1.000
    N5207    N        0.76068    0.58487    0.33050    1.000
    Si5208   Si       0.79878    0.58665    0.31125    1.000
    Si5209   Si       0.86166    0.54769    0.33957    1.000
    Si5210   Si       0.75082    0.57537    0.37301    1.000
    Si5211   Si       0.90047    0.57002    0.27778    1.000
    Si5212   Si       0.96665    0.56628    0.30264    1.000
    N5213    N        0.88731    0.57710    0.31995    1.000
    N5214    N        0.93765    0.54411    0.27689    1.000
    N5215    N        0.95531    0.59589    0.33472    1.000
    Si5216   Si       0.94965    0.57530    0.37262    1.000
    N5217    N        0.85541    0.56599    0.37801    1.000
    Si5218   Si       0.85129    0.55367    0.45810    1.000
    N5219    N        0.83848    0.58906    0.43665    1.000
    N5220    N        0.78887    0.55907    0.39422    1.000
    Si5221   Si       0.82259    0.58762    0.39712    1.000
    N5222    N        0.76016    0.54184    0.50178    1.000
    N5223    N        0.97776    0.58355    0.45239    1.000
    N5224    N        0.88880    0.54420    0.43458    1.000
    N5225    N        0.92204    0.54147    0.37484    1.000
    Si5226   Si       0.89330    0.56807    0.39938    1.000
    N5227    N        0.98847    0.56116    0.38869    1.000
    Si5228   Si       0.98893    0.54826    0.43047    1.000
    N5229    N        0.81098    0.57794    0.52887    1.000
    Si5230   Si       0.85241    0.56350    0.53688    1.000
    Si5231   Si       0.82287    0.54856    0.60252    1.000
    Si5232   Si       0.76646    0.57704    0.52467    1.000
    N5233    N        0.74939    0.55648    0.56074    1.000
    N5234    N        0.81247    0.59033    0.60399    1.000
    N5235    N        0.85364    0.53628    0.57115    1.000
    N5236    N        0.86754    0.54802    0.49942    1.000
    N5237    N        0.92239    0.56239    0.59461    1.000
    N5238    N        0.97783    0.57464    0.55710    1.000
    Si5239   Si       0.94800    0.59446    0.58088    1.000
    Si5240   Si       0.74428    0.57661    0.66809    1.000
    Si5241   Si       0.79238    0.56538    0.70828    1.000
    N5242    N        0.83939    0.56392    0.71311    1.000
    N5243    N        0.78669    0.58860    0.66953    1.000
    Si5244   Si       0.85674    0.56411    0.67356    1.000
    N5245    N        0.74752    0.56396    0.71035    1.000
    N5246    N        0.83294    0.54272    0.64318    1.000
    N5247    N        0.79291    0.59906    0.74025    1.000
    N5248    N        0.95278    0.54632    0.70890    1.000
    Si5249   Si       0.92223    0.54374    0.63383    1.000
    N5250    N        0.89953    0.55595    0.67119    1.000
    Si5251   Si       0.96364    0.58219    0.72924    1.000
    N5252    N        0.77020    0.56865    0.81756    1.000
    Si5253   Si       0.83495    0.58292    0.75335    1.000
    N5254    N        0.82812    0.54398    0.77171    1.000
    N5255    N        0.86433    0.56396    0.83250    1.000
    N5256    N        0.92162    0.55662    0.79789    1.000
    N5257    N        0.97425    0.57476    0.83460    1.000
    Si5258   Si       0.96383    0.55050    0.79910    1.000
    N5259    N        0.98275    0.57213    0.76742    1.000
    Si5260   Si       0.90931    0.59454    0.77936    1.000
    Si5261   Si       0.77977    0.55370    0.95795    1.000
    N5262    N        0.82405    0.56072    0.95882    1.000
    Si5263   Si       0.77637    0.58338    0.89792    1.000
    N5264    N        0.75339    0.57811    0.93575    1.000
    Si5265   Si       0.84257    0.59085    0.93486    1.000
    N5266    N        0.77581    0.54394    0.87895    1.000
    N5267    N        0.81590    0.59892    0.90116    1.000
    N5268    N        0.88374    0.57937    0.92992    1.000
    N5269    N        0.98537    0.54597    0.97064    1.000
    Si5270   Si       0.97172    0.55977    0.93257    1.000
    N5271    N        0.91824    0.59570    0.87064    1.000
    N5272    N        0.75472    0.63040    0.10066    1.000
    N5273    N        0.83727    0.60623    0.07106    1.000
    Si5274   Si       0.84749    0.64624    0.05660    1.000
    N5275    N        0.95309    0.60256    0.03893    1.000
    Si5276   Si       0.91321    0.62182    0.03854    1.000
    N5277    N        0.95877    0.64279    0.09553    1.000
    Si5278   Si       0.98205    0.61758    0.06717    1.000
    N5279    N        0.89183    0.65132    0.06293    1.000
    Si5280   Si       0.82838    0.60574    0.16419    1.000
    N5281    N        0.78855    0.62770    0.16294    1.000
    N5282    N        0.75291    0.63397    0.22722    1.000
    Si5283   Si       0.75053    0.62682    0.14394    1.000
    Si5284   Si       0.86059    0.63839    0.21634    1.000
    N5285    N        0.83889    0.60115    0.20593    1.000
    Si5286   Si       0.97687    0.65799    0.13404    1.000
    N5287    N        0.86348    0.60718    0.13708    1.000
    N5288    N        0.90049    0.63412    0.19528    1.000
    N5289    N        0.98670    0.64136    0.24345    1.000
    N5290    N        0.97357    0.63007    0.17079    1.000
    Si5291   Si       0.89974    0.62062    0.15587    1.000
    Si5292   Si       0.99222    0.65545    0.20313    1.000
    N5293    N        0.82388    0.62005    0.32198    1.000
    Si5294   Si       0.80895    0.64974    0.35116    1.000
    Si5295   Si       0.86440    0.61364    0.30739    1.000
    N5296    N        0.79411    0.59616    0.26721    1.000
    N5297    N        0.86472    0.59829    0.26619    1.000
    Si5298   Si       0.96448    0.63898    0.32917    1.000
    N5299    N        0.92829    0.60717    0.27070    1.000
    Si5300   Si       0.91257    0.64565    0.28132    1.000
    Si5301   Si       0.96510    0.60215    0.24664    1.000
    Si5302   Si       0.74934    0.63607    0.47711    1.000
    N5303    N        0.80293    0.62494    0.38635    1.000
    N5304    N        0.78108    0.62552    0.45026    1.000
    Si5305   Si       0.76980    0.63556    0.41032    1.000
    Si5306   Si       0.82325    0.62368    0.45634    1.000
    N5307    N        0.83309    0.63818    0.49630    1.000
    N5308    N        0.96468    0.64852    0.42670    1.000
    N5309    N        0.92185    0.60041    0.39642    1.000
    N5310    N        0.93063    0.63008    0.48509    1.000
    Si5311   Si       0.96618    0.62448    0.46161    1.000
    Si5312   Si       0.93073    0.64220    0.40033    1.000
    Si5313   Si       0.82822    0.61699    0.53250    1.000
    N5314    N        0.75793    0.61846    0.51636    1.000
    N5315    N        0.75492    0.63131    0.58888    1.000
    N5316    N        0.80553    0.64477    0.55594    1.000
    Si5317   Si       0.79791    0.63007    0.59688    1.000
    Si5318   Si       0.76120    0.64752    0.54825    1.000
    N5319    N        0.86504    0.60253    0.55117    1.000
    N5320    N        0.93163    0.62789    0.55552    1.000
    Si5321   Si       0.89133    0.62986    0.57132    1.000
    N5322    N        0.89954    0.63321    0.61437    1.000
    N5323    N        0.96916    0.60980    0.61610    1.000
    Si5324   Si       0.93651    0.65452    0.52090    1.000
    N5325    N        0.75241    0.64450    0.72114    1.000
    N5326    N        0.81122    0.64816    0.63413    1.000
    Si5327   Si       0.79624    0.64505    0.72741    1.000
    Si5328   Si       0.81599    0.60697    0.64554    1.000
    N5329    N        0.85461    0.60759    0.66454    1.000
    N5330    N        0.98908    0.61008    0.71030    1.000
    Si5331   Si       0.94070    0.63811    0.63493    1.000
    Si5332   Si       0.88018    0.63988    0.65383    1.000
    N5333    N        0.91818    0.63488    0.67399    1.000
    Si5334   Si       0.92032    0.64039    0.71768    1.000
    N5335    N        0.92788    0.60551    0.74206    1.000
    N5336    N        0.76065    0.63595    0.79143    1.000
    N5337    N        0.80413    0.62675    0.83435    1.000
    Si5338   Si       0.76073    0.61068    0.83088    1.000
    Si5339   Si       0.75128    0.61417    0.75372    1.000
    Si5340   Si       0.79818    0.65374    0.80187    1.000
    N5341    N        0.82163    0.65329    0.76358    1.000
    N5342    N        0.86335    0.63523    0.86554    1.000
    Si5343   Si       0.86374    0.64705    0.76398    1.000
    N5344    N        0.86809    0.60359    0.76989    1.000
    N5345    N        0.91541    0.61989    0.81570    1.000
    Si5346   Si       0.94918    0.60846    0.84459    1.000
    Si5347   Si       0.88233    0.60298    0.84457    1.000
    N5348    N        0.96997    0.64783    0.84860    1.000
    Si5349   Si       0.82066    0.63425    0.87460    1.000
    N5350    N        0.75645    0.61481    0.87503    1.000
    Si5351   Si       0.81691    0.64713    0.98376    1.000
    N5352    N        0.84799    0.62637    0.96092    1.000
    N5353    N        0.79146    0.61737    0.99837    1.000
    N5354    N        0.91031    0.63859    0.99731    1.000
    N5355    N        0.95901    0.60054    0.92587    1.000
    N5356    N        0.90361    0.64332    0.92262    1.000
    Si5357   Si       0.88427    0.64893    0.96316    1.000
    Si5358   Si       0.91646    0.60179    0.91318    1.000
    N5359    N        0.98533    0.65258    0.97313    1.000
    Si5360   Si       0.77657    0.66734    0.09302    1.000
    N5361    N        0.81656    0.66963    0.07812    1.000
    Si5362   Si       0.82631    0.70520    0.10511    1.000
    Si5363   Si       0.85642    0.70281    0.00181    1.000
    N5364    N        0.74635    0.69843    0.07878    1.000
    N5365    N        0.84113    0.66530    0.01684    1.000
    Si5366   Si       0.96584    0.70240    0.05860    1.000
    N5367    N        0.96383    0.66861    0.03011    1.000
    Si5368   Si       0.92012    0.66474    0.09389    1.000
    N5369    N        0.93081    0.70818    0.08304    1.000
    N5370    N        0.79300    0.68554    0.13045    1.000
    Si5371   Si       0.80256    0.66709    0.16753    1.000
    N5372    N        0.77959    0.69027    0.19739    1.000
    Si5373   Si       0.78510    0.66396    0.23226    1.000
    N5374    N        0.84364    0.65899    0.17650    1.000
    N5375    N        0.82804    0.66090    0.23814    1.000
    N5376    N        0.89172    0.66524    0.24798    1.000
    N5377    N        0.89734    0.70296    0.18943    1.000
    Si5378   Si       0.91752    0.67188    0.21338    1.000
    N5379    N        0.90484    0.65968    0.13423    1.000
    N5380    N        0.95685    0.68744    0.20427    1.000
    N5381    N        0.96028    0.69783    0.14061    1.000
    Si5382   Si       0.87457    0.68282    0.15764    1.000
    N5383    N        0.77599    0.67412    0.33809    1.000
    Si5384   Si       0.79081    0.69601    0.30280    1.000
    N5385    N        0.77099    0.68188    0.26734    1.000
    N5386    N        0.83296    0.69098    0.30034    1.000
    N5387    N        0.84146    0.67793    0.36591    1.000
    Si5388   Si       0.85509    0.68597    0.26224    1.000
    Si5389   Si       0.74894    0.69331    0.36943    1.000
    Si5390   Si       0.86493    0.68778    0.33055    1.000
    N5391    N        0.94696    0.66774    0.29814    1.000
    Si5392   Si       0.96343    0.70937    0.29246    1.000
    N5393    N        0.88354    0.65063    0.31277    1.000
    N5394    N        0.95606    0.65707    0.36624    1.000
    N5395    N        0.84385    0.65927    0.44038    1.000
    Si5396   Si       0.85894    0.68021    0.40511    1.000
    N5397    N        0.76475    0.67980    0.40614    1.000
    Si5398   Si       0.83139    0.67917    0.48057    1.000
    N5399    N        0.75274    0.67980    0.47522    1.000
    Si5400   Si       0.77138    0.70273    0.44339    1.000
    N5401    N        0.81377    0.71118    0.45426    1.000
    N5402    N        0.90315    0.67422    0.40395    1.000
    Si5403   Si       0.99001    0.66733    0.39443    1.000
    N5404    N        0.98661    0.71046    0.39993    1.000
    Si5405   Si       0.90793    0.71528    0.41235    1.000
    Si5406   Si       0.83343    0.68067    0.55634    1.000
    N5407    N        0.81834    0.69843    0.59159    1.000
    N5408    N        0.83229    0.70236    0.51810    1.000
    N5409    N        0.87342    0.66820    0.56034    1.000
    Si5410   Si       0.89784    0.70179    0.55192    1.000
    N5411    N        0.97524    0.67703    0.52423    1.000
    N5412    N        0.91144    0.68801    0.51159    1.000
    N5413    N        0.93713    0.70579    0.57014    1.000
    Si5414   Si       0.93303    0.71218    0.61255    1.000
    N5415    N        0.74459    0.70977    0.70234    1.000
    Si5416   Si       0.82633    0.68977    0.63557    1.000
    N5417    N        0.81078    0.68354    0.70924    1.000
    Si5418   Si       0.85339    0.68618    0.70245    1.000
    N5419    N        0.86338    0.68134    0.65859    1.000
    Si5420   Si       0.78579    0.71840    0.71459    1.000
    N5421    N        0.95339    0.67061    0.71956    1.000
    N5422    N        0.94773    0.67999    0.63729    1.000
    Si5423   Si       0.96477    0.69527    0.67549    1.000
    N5424    N        0.87810    0.65670    0.72314    1.000
    N5425    N        0.80253    0.69359    0.81497    1.000
    N5426    N        0.74376    0.68746    0.85616    1.000
    Si5427   Si       0.77323    0.71229    0.84053    1.000
    N5428    N        0.88155    0.67445    0.79201    1.000
    N5429    N        0.91565    0.68049    0.85491    1.000
    N5430    N        0.95449    0.67476    0.79176    1.000
    Si5431   Si       0.95682    0.69725    0.75570    1.000
    Si5432   Si       0.91857    0.66397    0.81360    1.000
    N5433    N        0.98087    0.71344    0.84389    1.000
    Si5434   Si       0.98865    0.67593    0.81963    1.000
    Si5435   Si       0.88850    0.71542    0.78236    1.000
    Si5436   Si       0.75634    0.67159    0.89518    1.000
    N5437    N        0.79649    0.67992    0.96614    1.000
    N5438    N        0.80060    0.66980    0.89165    1.000
    Si5439   Si       0.81971    0.70883    0.89376    1.000
    N5440    N        0.75271    0.71020    0.91874    1.000
    N5441    N        0.86359    0.70160    0.89138    1.000
    N5442    N        0.94203    0.71265    0.90350    1.000
    Si5443   Si       0.88738    0.66308    0.88755    1.000
    N5444    N        0.86752    0.68870    0.96209    1.000
    N5445    N        0.93893    0.69967    0.97304    1.000
    Si5446   Si       0.95818    0.68472    0.87091    1.000
    Si5447   Si       0.94560    0.66216    0.99155    1.000
    Si5448   Si       0.96510    0.69858    0.93868    1.000
    N5449    N        0.98734    0.67096    0.90959    1.000
    N5450    N        0.80353    0.74212    0.09929    1.000
    Si5451   Si       0.76620    0.73814    0.07803    1.000
    N5452    N        0.77131    0.75105    0.03754    1.000
    N5453    N        0.85795    0.72302    0.07405    1.000
    Si5454   Si       0.83988    0.76164    0.08457    1.000
    Si5455   Si       0.80976    0.76436    0.02164    1.000
    N5456    N        0.82557    0.73361    0.99694    1.000
    N5457    N        0.96991    0.74105    0.04047    1.000
    Si5458   Si       0.89875    0.72877    0.06160    1.000
    Si5459   Si       0.94759    0.73178    0.11664    1.000
    N5460    N        0.90888    0.77113    0.06330    1.000
    N5461    N        0.98480    0.75707    0.11593    1.000
    N5462    N        0.89502    0.71836    0.01856    1.000
    N5463    N        0.85139    0.75934    0.18374    1.000
    N5464    N        0.77780    0.75814    0.16651    1.000
    Si5465   Si       0.76646    0.73184    0.20078    1.000
    N5466    N        0.79529    0.75061    0.22876    1.000
    N5467    N        0.85773    0.71426    0.13496    1.000
    Si5468   Si       0.97769    0.72470    0.21893    1.000
    Si5469   Si       0.87861    0.73996    0.21012    1.000
    Si5470   Si       0.93836    0.71615    0.17297    1.000
    Si5471   Si       0.87367    0.75388    0.14389    1.000
    N5472    N        0.91829    0.75077    0.14696    1.000
    N5473    N        0.96925    0.74954    0.18373    1.000
    N5474    N        0.91112    0.76597    0.21460    1.000
    N5475    N        0.77278    0.73888    0.29971    1.000
    N5476    N        0.75053    0.73591    0.36631    1.000
    Si5477   Si       0.79641    0.76331    0.27130    1.000
    Si5478   Si       0.74352    0.75488    0.32736    1.000
    N5479    N        0.86550    0.72618    0.25019    1.000
    Si5480   Si       0.87140    0.75097    0.28649    1.000
    Si5481   Si       0.91646    0.74820    0.34049    1.000
    N5482    N        0.95549    0.73474    0.32465    1.000
    N5483    N        0.95243    0.73068    0.25556    1.000
    N5484    N        0.88390    0.72555    0.32111    1.000
    Si5485   Si       0.93378    0.77007    0.25203    1.000
    Si5486   Si       0.96810    0.73445    0.36640    1.000
    N5487    N        0.98813    0.77359    0.36618    1.000
    Si5488   Si       0.75712    0.76575    0.40026    1.000
    Si5489   Si       0.84544    0.74185    0.44867    1.000
    N5490    N        0.75611    0.74269    0.43646    1.000
    N5491    N        0.86612    0.72279    0.41609    1.000
    N5492    N        0.87385    0.73920    0.48238    1.000
    Si5493   Si       0.91539    0.72258    0.48632    1.000
    N5494    N        0.92642    0.73631    0.38052    1.000
    Si5495   Si       0.97493    0.73262    0.43773    1.000
    N5496    N        0.93407    0.72438    0.44645    1.000
    Si5497   Si       0.84815    0.74245    0.51761    1.000
    Si5498   Si       0.80150    0.73766    0.60124    1.000
    N5499    N        0.76485    0.76241    0.60704    1.000
    N5500    N        0.83058    0.76797    0.59125    1.000
    Si5501   Si       0.87303    0.75470    0.59294    1.000
    N5502    N        0.87684    0.74059    0.55269    1.000
    N5503    N        0.94445    0.74344    0.51163    1.000
    N5504    N        0.89004    0.72345    0.61610    1.000
    N5505    N        0.95647    0.74724    0.62204    1.000
    Si5506   Si       0.96426    0.71574    0.53918    1.000
    Si5507   Si       0.84813    0.75578    0.73044    1.000
    N5508    N        0.80921    0.75627    0.70498    1.000
    N5509    N        0.81075    0.72850    0.64334    1.000
    Si5510   Si       0.82188    0.76673    0.66379    1.000
    N5511    N        0.74512    0.77823    0.71203    1.000
    Si5512   Si       0.88300    0.72464    0.66026    1.000
    N5513    N        0.86874    0.72608    0.70320    1.000
    N5514    N        0.86367    0.76881    0.65639    1.000
    Si5515   Si       0.99074    0.75240    0.71969    1.000
    N5516    N        0.92634    0.72785    0.67536    1.000
    Si5517   Si       0.95610    0.76191    0.66274    1.000
    Si5518   Si       0.91136    0.74422    0.71594    1.000
    N5519    N        0.95022    0.77089    0.71856    1.000
    N5520    N        0.81611    0.76122    0.81370    1.000
    Si5521   Si       0.74837    0.74852    0.77701    1.000
    N5522    N        0.85084    0.72759    0.76553    1.000
    N5523    N        0.78365    0.73126    0.75711    1.000
    N5524    N        0.74692    0.73909    0.81978    1.000
    Si5525   Si       0.81421    0.72639    0.78737    1.000
    Si5526   Si       0.80614    0.77307    0.85353    1.000
    N5527    N        0.89468    0.73443    0.82153    1.000
    Si5528   Si       0.98502    0.75801    0.83111    1.000
    Si5529   Si       0.89496    0.71989    0.86234    1.000
    N5530    N        0.91944    0.72035    0.75303    1.000
    Si5531   Si       0.91124    0.77398    0.83263    1.000
    N5532    N        0.79404    0.73670    0.87206    1.000
    Si5533   Si       0.76206    0.74944    0.90322    1.000
    N5534    N        0.75672    0.73687    0.97501    1.000
    N5535    N        0.82375    0.73534    0.92963    1.000
    Si5536   Si       0.79855    0.72263    0.96412    1.000
    Si5537   Si       0.86504    0.71914    0.93391    1.000
    N5538    N        0.92916    0.77014    0.99525    1.000
    Si5539   Si       0.92601    0.75140    0.91371    1.000
    Si5540   Si       0.91371    0.73288    0.98253    1.000
    N5541    N        0.90465    0.76060    0.87723    1.000
    N5542    N        0.89601    0.74445    0.94473    1.000
    N5543    N        0.95566    0.77801    0.92755    1.000
    N5544    N        0.82870    0.78668    0.05150    1.000
    Si5545   Si       0.83651    0.82892    0.04838    1.000
    Si5546   Si       0.75065    0.77244    0.99966    1.000
    N5547    N        0.86614    0.78205    0.11115    1.000
    N5548    N        0.92936    0.82804    0.10371    1.000
    N5549    N        0.96496    0.81101    0.04392    1.000
    Si5550   Si       0.89515    0.80445    0.08723    1.000
    Si5551   Si       0.94167    0.77421    0.03642    1.000
    N5552    N        0.87826    0.83242    0.05695    1.000
    Si5553   Si       0.75272    0.77920    0.13818    1.000
    N5554    N        0.77749    0.81815    0.12883    1.000
    N5555    N        0.80052    0.81633    0.19750    1.000
    Si5556   Si       0.81029    0.77358    0.19326    1.000
    Si5557   Si       0.93003    0.78236    0.17865    1.000
    N5558    N        0.90108    0.81598    0.16689    1.000
    N5559    N        0.96472    0.81204    0.16780    1.000
    N5560    N        0.77596    0.80220    0.26825    1.000
    N5561    N        0.75137    0.79858    0.33032    1.000
    Si5562   Si       0.83492    0.81659    0.29860    1.000
    Si5563   Si       0.77848    0.81690    0.36060    1.000
    Si5564   Si       0.74887    0.82414    0.29404    1.000
    N5565    N        0.81591    0.82564    0.33699    1.000
    N5566    N        0.83426    0.77302    0.29123    1.000
    N5567    N        0.91247    0.79198    0.34719    1.000
    Si5568   Si       0.90926    0.81059    0.30948    1.000
    N5569    N        0.90494    0.77722    0.28347    1.000
    N5570    N        0.96589    0.79837    0.24809    1.000
    N5571    N        0.76771    0.79793    0.47491    1.000
    Si5572   Si       0.81023    0.79731    0.48407    1.000
    N5573    N        0.83212    0.78284    0.44873    1.000
    Si5574   Si       0.82499    0.80936    0.41319    1.000
    N5575    N        0.79262    0.79203    0.39258    1.000
    N5576    N        0.85966    0.81753    0.38715    1.000
    N5577    N        0.98247    0.77840    0.43507    1.000
    Si5578   Si       0.95818    0.81506    0.44254    1.000
    Si5579   Si       0.90189    0.81811    0.37971    1.000
    N5580    N        0.93122    0.81992    0.41051    1.000
    N5581    N        0.93572    0.80552    0.47711    1.000
    Si5582   Si       0.82307    0.79606    0.55870    1.000
    N5583    N        0.78977    0.81911    0.57234    1.000
    Si5584   Si       0.77836    0.80395    0.61276    1.000
    N5585    N        0.85700    0.82351    0.55427    1.000
    N5586    N        0.73777    0.82237    0.60979    1.000
    N5587    N        0.82119    0.77575    0.52075    1.000
    Si5588   Si       0.95399    0.78408    0.51081    1.000
    N5589    N        0.92796    0.80501    0.53874    1.000
    N5590    N        0.89552    0.79051    0.60083    1.000
    Si5591   Si       0.89746    0.81775    0.56797    1.000
    N5592    N        0.78142    0.83019    0.71306    1.000
    N5593    N        0.80054    0.80682    0.65027    1.000
    Si5594   Si       0.78638    0.78583    0.72905    1.000
    Si5595   Si       0.86730    0.81759    0.73764    1.000
    N5596    N        0.88479    0.77900    0.73125    1.000
    Si5597   Si       0.93742    0.81150    0.70659    1.000
    N5598    N        0.92774    0.79562    0.66653    1.000
    Si5599   Si       0.89189    0.80032    0.64347    1.000
    N5600    N        0.77158    0.79776    0.84613    1.000
    Si5601   Si       0.80736    0.79582    0.78954    1.000
    N5602    N        0.76734    0.79292    0.77221    1.000
    N5603    N        0.81949    0.82881    0.81448    1.000
    N5604    N        0.82624    0.79309    0.75083    1.000
    N5605    N        0.94999    0.78394    0.82008    1.000
    N5606    N        0.88488    0.80576    0.83377    1.000
    Si5607   Si       0.95240    0.82548    0.80845    1.000
    N5608    N        0.95011    0.82984    0.76342    1.000
    Si5609   Si       0.75683    0.82027    0.93545    1.000
    N5610    N        0.83652    0.81410    0.94446    1.000
    N5611    N        0.77723    0.78555    0.91965    1.000
    N5612    N        0.83664    0.78844    0.88050    1.000
    Si5613   Si       0.81981    0.78041    0.92035    1.000
    Si5614   Si       0.81095    0.82582    0.97684    1.000
    N5615    N        0.79078    0.79151    0.99390    1.000
    Si5616   Si       0.87807    0.79787    0.87587    1.000
    Si5617   Si       0.96124    0.78393    0.96893    1.000
    Si5618   Si       0.98591    0.79558    0.90449    1.000
    N5619    N        0.96866    0.82755    0.97345    1.000
    N5620    N        0.89397    0.82864    0.90303    1.000
    N5621    N        0.97044    0.83598    0.89983    1.000
    N5622    N        0.81491    0.85017    0.08059    1.000
    Si5623   Si       0.83542    0.87726    0.10598    1.000
    N5624    N        0.83221    0.84540    0.00850    1.000
    Si5625   Si       0.77406    0.84617    0.09493    1.000
    N5626    N        0.75570    0.88740    0.09277    1.000
    N5627    N        0.93689    0.87162    0.05037    1.000
    Si5628   Si       0.89457    0.87317    0.05249    1.000
    Si5629   Si       0.95730    0.84043    0.07312    1.000
    Si5630   Si       0.96477    0.89336    0.02646    1.000
    N5631    N        0.87315    0.89114    0.08737    1.000
    N5632    N        0.84034    0.84988    0.14272    1.000
    N5633    N        0.77670    0.87689    0.16222    1.000
    N5634    N        0.77321    0.86855    0.23807    1.000
    Si5635   Si       0.75470    0.88219    0.20039    1.000
    Si5636   Si       0.79904    0.83993    0.16023    1.000
    N5637    N        0.85554    0.87212    0.20415    1.000
    Si5638   Si       0.79348    0.83003    0.23832    1.000
    N5639    N        0.97155    0.87097    0.15159    1.000
    Si5640   Si       0.87339    0.85075    0.17069    1.000
    N5641    N        0.90447    0.83752    0.24177    1.000
    Si5642   Si       0.98249    0.84684    0.18619    1.000
    N5643    N        0.97238    0.86162    0.22716    1.000
    Si5644   Si       0.93332    0.83907    0.14500    1.000
    N5645    N        0.90733    0.87420    0.15503    1.000
    N5646    N        0.76045    0.86594    0.30425    1.000
    Si5647   Si       0.85370    0.84741    0.35365    1.000
    Si5648   Si       0.74927    0.88071    0.34417    1.000
    N5649    N        0.83135    0.83840    0.26078    1.000
    N5650    N        0.83483    0.88459    0.36555    1.000
    Si5651   Si       0.75231    0.89151    0.27149    1.000
    Si5652   Si       0.95687    0.87884    0.30272    1.000
    N5653    N        0.94215    0.83865    0.29642    1.000
    Si5654   Si       0.94632    0.83731    0.25280    1.000
    N5655    N        0.89978    0.85957    0.36581    1.000
    N5656    N        0.87141    0.83403    0.31405    1.000
    Si5657   Si       0.86686    0.85891    0.24493    1.000
    N5658    N        0.76936    0.85720    0.37434    1.000
    N5659    N        0.76050    0.86688    0.48566    1.000
    Si5660   Si       0.80086    0.86512    0.46642    1.000
    Si5661   Si       0.80381    0.87618    0.39526    1.000
    N5662    N        0.81061    0.84937    0.42721    1.000
    N5663    N        0.88313    0.85154    0.49697    1.000
    Si5664   Si       0.97134    0.88552    0.48737    1.000
    N5665    N        0.97854    0.85319    0.45658    1.000
    Si5666   Si       0.84932    0.85513    0.52270    1.000
    N5667    N        0.74281    0.87190    0.55274    1.000
    Si5668   Si       0.74574    0.83152    0.56745    1.000
    N5669    N        0.82000    0.84071    0.49533    1.000
    Si5670   Si       0.74085    0.83098    0.49359    1.000
    N5671    N        0.91431    0.85599    0.58058    1.000
    N5672    N        0.94153    0.87286    0.51484    1.000
    Si5673   Si       0.93583    0.88638    0.55610    1.000
    Si5674   Si       0.89869    0.87115    0.61806    1.000
    Si5675   Si       0.97321    0.88266    0.61765    1.000
    N5676    N        0.97724    0.88612    0.57322    1.000
    Si5677   Si       0.92189    0.83636    0.50296    1.000
    N5678    N        0.84566    0.83143    0.70119    1.000
    N5679    N        0.81372    0.87824    0.66343    1.000
    Si5680   Si       0.80765    0.83873    0.68055    1.000
    N5681    N        0.97352    0.83436    0.70172    1.000
    N5682    N        0.90522    0.84149    0.71810    1.000
    Si5683   Si       0.98321    0.84829    0.74205    1.000
    Si5684   Si       0.87755    0.85908    0.68678    1.000
    N5685    N        0.93425    0.88764    0.63409    1.000
    N5686    N        0.88501    0.84205    0.64679    1.000
    N5687    N        0.75603    0.85832    0.80802    1.000
    N5688    N        0.79174    0.86673    0.86763    1.000
    Si5689   Si       0.83340    0.88096    0.86837    1.000
    Si5690   Si       0.78157    0.83848    0.83708    1.000
    Si5691   Si       0.86352    0.83925    0.81389    1.000
    N5692    N        0.86676    0.87035    0.84397    1.000
    Si5693   Si       0.91564    0.85784    0.76477    1.000
    N5694    N        0.92480    0.86169    0.80865    1.000
    N5695    N        0.87495    0.84324    0.77229    1.000
    N5696    N        0.92851    0.88743    0.87218    1.000
    N5697    N        0.98992    0.83726    0.82643    1.000
    Si5698   Si       0.90419    0.89034    0.83483    1.000
    Si5699   Si       0.76074    0.88341    0.89315    1.000
    Si5700   Si       0.75282    0.87752    0.98265    1.000
    N5701    N        0.84389    0.87814    0.91078    1.000
    N5702    N        0.77792    0.84925    0.95956    1.000
    Si5703   Si       0.85608    0.87797    0.99111    1.000
    Si5704   Si       0.86482    0.84413    0.93027    1.000
    Si5705   Si       0.97633    0.85451    0.94041    1.000
    N5706    N        0.94738    0.88525    0.93099    1.000
    Si5707   Si       0.93032    0.85248    0.89843    1.000
    N5708    N        0.88566    0.86867    0.96136    1.000
    Si5709   Si       0.75639    0.91150    0.05612    1.000
    N5710    N        0.77234    0.89917    0.01722    1.000
    Si5711   Si       0.80192    0.92810    0.00122    1.000
    N5712    N        0.82603    0.94563    0.03239    1.000
    N5713    N        0.81363    0.91326    0.11819    1.000
    N5714    N        0.76865    0.95019    0.07325    1.000
    Si5715   Si       0.89694    0.92500    0.09847    1.000
    N5716    N        0.93769    0.91803    0.11034    1.000
    Si5717   Si       0.97286    0.93655    0.08699    1.000
    N5718    N        0.87504    0.89982    0.02208    1.000
    N5719    N        0.98100    0.92884    0.04487    1.000
    Si5720   Si       0.87087    0.94404    0.03082    1.000
    Si5721   Si       0.77350    0.90657    0.12939    1.000
    N5722    N        0.74895    0.92414    0.20735    1.000
    Si5723   Si       0.84733    0.91193    0.22210    1.000
    N5724    N        0.81538    0.94348    0.22357    1.000
    Si5725   Si       0.77624    0.94871    0.23543    1.000
    N5726    N        0.74357    0.93802    0.13870    1.000
    Si5727   Si       0.94097    0.90157    0.15165    1.000
    N5728    N        0.98608    0.93815    0.22696    1.000
    N5729    N        0.87120    0.94020    0.19825    1.000
    N5730    N        0.87592    0.94177    0.13038    1.000
    N5731    N        0.93686    0.93454    0.17785    1.000
    N5732    N        0.77500    0.92800    0.27475    1.000
    N5733    N        0.77065    0.91987    0.34072    1.000
    Si5734   Si       0.84867    0.92487    0.35154    1.000
    Si5735   Si       0.78683    0.94494    0.31147    1.000
    N5736    N        0.82921    0.94862    0.32030    1.000
    N5737    N        0.86727    0.90002    0.25996    1.000
    N5738    N        0.93298    0.90801    0.27644    1.000
    N5739    N        0.88752    0.91878    0.33107    1.000
    Si5740   Si       0.89257    0.92162    0.28644    1.000
    Si5741   Si       0.97217    0.92335    0.26471    1.000
    Si5742   Si       0.91523    0.89978    0.36115    1.000
    N5743    N        0.95536    0.89747    0.34213    1.000
    Si5744   Si       0.98954    0.90760    0.36556    1.000
    Si5745   Si       0.79606    0.93773    0.44579    1.000
    N5746    N        0.79007    0.91411    0.41083    1.000
    Si5747   Si       0.77052    0.93865    0.37966    1.000
    N5748    N        0.81626    0.90711    0.47122    1.000
    N5749    N        0.85486    0.94957    0.38678    1.000
    Si5750   Si       0.95443    0.92332    0.42408    1.000
    N5751    N        0.95276    0.92075    0.46793    1.000
    N5752    N        0.91798    0.92007    0.40004    1.000
    N5753    N        0.98585    0.89918    0.40811    1.000
    Si5754   Si       0.82357    0.92269    0.50994    1.000
    N5755    N        0.78224    0.92533    0.52422    1.000
    N5756    N        0.84652    0.89670    0.53491    1.000
    Si5757   Si       0.75254    0.89536    0.51628    1.000
    N5758    N        0.74001    0.94358    0.57284    1.000
    N5759    N        0.86413    0.89730    0.61005    1.000
    Si5760   Si       0.86655    0.91667    0.57118    1.000
    N5761    N        0.90978    0.92101    0.56084    1.000
    N5762    N        0.76392    0.90312    0.62135    1.000
    N5763    N        0.82015    0.94085    0.64845    1.000
    Si5764   Si       0.84632    0.90409    0.65032    1.000
    Si5765   Si       0.78536    0.91291    0.65559    1.000
    N5766    N        0.76795    0.93486    0.68930    1.000
    Si5767   Si       0.98984    0.92638    0.67190    1.000
    N5768    N        0.87968    0.90345    0.67810    1.000
    Si5769   Si       0.92170    0.91713    0.66504    1.000
    Si5770   Si       0.95551    0.91621    0.73623    1.000
    N5771    N        0.95505    0.91426    0.69334    1.000
    N5772    N        0.78236    0.92121    0.80106    1.000
    Si5773   Si       0.82480    0.92432    0.81010    1.000
    N5774    N        0.83222    0.92319    0.85301    1.000
    N5775    N        0.84859    0.90928    0.77754    1.000
    Si5776   Si       0.74967    0.90011    0.81998    1.000
    Si5777   Si       0.89037    0.92450    0.77607    1.000
    N5778    N        0.89815    0.93021    0.81957    1.000
    N5779    N        0.91886    0.90063    0.75347    1.000
    N5780    N        0.82877    0.90727    0.97494    1.000
    Si5781   Si       0.75542    0.93806    0.94445    1.000
    N5782    N        0.78235    0.91095    0.91959    1.000
    Si5783   Si       0.82471    0.90990    0.93178    1.000
    N5784    N        0.84397    0.94668    0.92131    1.000
    Si5785   Si       0.92706    0.95073    0.98590    1.000
    N5786    N        0.93968    0.90939    0.99446    1.000
    N5787    N        0.90836    0.93875    0.94691    1.000
    Si5788   Si       0.91722    0.89666    0.95923    1.000
    Si5789   Si       0.95921    0.91081    0.89417    1.000
    N5790    N        0.82688    0.98345    0.09776    1.000
    Si5791   Si       0.80567    0.97225    0.05974    1.000
    N5792    N        0.78733    0.00191    0.03285    1.000
    Si5793   Si       0.74527    0.96603    0.10661    1.000
    Si5794   Si       0.76051    0.99196    0.00155    1.000
    N5795    N        0.85131    0.01218    0.04090    1.000
    N5796    N        0.96247    0.97827    0.08902    1.000
    Si5797   Si       0.92296    0.98508    0.07421    1.000
    N5798    N        0.89479    0.95352    0.06522    1.000
    N5799    N        0.89704    0.00780    0.10238    1.000
    Si5800   Si       0.88865    0.00769    0.01557    1.000
    Si5801   Si       0.83275    0.95060    0.12604    1.000
    N5802    N        0.76374    0.99941    0.12827    1.000
    Si5803   Si       0.83816    0.97007    0.19928    1.000
    N5804    N        0.76806    0.99269    0.23860    1.000
    N5805    N        0.82252    0.97696    0.15963    1.000
    N5806    N        0.85571    0.00508    0.21628    1.000
    Si5807   Si       0.80535    0.00591    0.13229    1.000
    Si5808   Si       0.96432    0.96132    0.19776    1.000
    Si5809   Si       0.90321    0.00567    0.21289    1.000
    Si5810   Si       0.89831    0.95043    0.16743    1.000
    N5811    N        0.94094    0.98701    0.22751    1.000
    N5812    N        0.90423    0.99327    0.17061    1.000
    N5813    N        0.76628    0.98569    0.30587    1.000
    Si5814   Si       0.85196    0.98076    0.30519    1.000
    N5815    N        0.88994    0.96513    0.28173    1.000
    N5816    N        0.97870    0.95826    0.28908    1.000
    Si5817   Si       0.96743    0.99295    0.26369    1.000
    N5818    N        0.88041    0.00573    0.32928    1.000
    Si5819   Si       0.90751    0.00356    0.29229    1.000
    N5820    N        0.79019    0.97830    0.38088    1.000
    Si5821   Si       0.82887    0.98064    0.40146    1.000
    N5822    N        0.82493    0.96965    0.44336    1.000
    Si5823   Si       0.85612    0.97740    0.47403    1.000
    N5824    N        0.75503    0.95356    0.45417    1.000
    N5825    N        0.96507    0.96476    0.41812    1.000
    N5826    N        0.94126    0.00096    0.46930    1.000
    N5827    N        0.90664    0.99077    0.39890    1.000
    Si5828   Si       0.93962    0.00063    0.42399    1.000
    Si5829   Si       0.93199    0.95964    0.47980    1.000
    N5830    N        0.89103    0.95963    0.45745    1.000
    Si5831   Si       0.89075    0.95177    0.41254    1.000
    Si5832   Si       0.83165    0.98245    0.55074    1.000
    N5833    N        0.78887    0.98839    0.56218    1.000
    N5834    N        0.83883    0.96314    0.51141    1.000
    Si5835   Si       0.76468    0.95904    0.54275    1.000
    N5836    N        0.84544    0.95475    0.58114    1.000
    N5837    N        0.94804    0.96538    0.51913    1.000
    N5838    N        0.92213    0.98697    0.58210    1.000
    N5839    N        0.98360    0.95840    0.57060    1.000
    Si5840   Si       0.93967    0.95410    0.56119    1.000
    Si5841   Si       0.98868    0.97695    0.53150    1.000
    Si5842   Si       0.83790    0.96952    0.62084    1.000
    N5843    N        0.75641    0.99823    0.62242    1.000
    N5844    N        0.78941    0.99815    0.68512    1.000
    Si5845   Si       0.80412    0.95905    0.69930    1.000
    N5846    N        0.84523    0.97758    0.70495    1.000
    Si5847   Si       0.75376    0.01072    0.66518    1.000
    N5848    N        0.80369    0.96002    0.74532    1.000
    Si5849   Si       0.91671    0.98463    0.62332    1.000
    N5850    N        0.95635    0.96092    0.74649    1.000
    Si5851   Si       0.92216    0.98772    0.74238    1.000
    N5852    N        0.93856    0.95406    0.64716    1.000
    N5853    N        0.87620    0.98030    0.63977    1.000
    Si5854   Si       0.87622    0.99471    0.68201    1.000
    Si5855   Si       0.95152    0.98914    0.67480    1.000
    N5856    N        0.91324    0.98491    0.69751    1.000
    N5857    N        0.76833    0.98638    0.80304    1.000
    N5858    N        0.83744    0.96864    0.80564    1.000
    Si5859   Si       0.80528    0.98990    0.82469    1.000
    Si5860   Si       0.84349    0.97419    0.75797    1.000
    N5861    N        0.79643    0.97821    0.86680    1.000
    Si5862   Si       0.77173    0.95484    0.77444    1.000
    N5863    N        0.86431    0.98456    0.86374    1.000
    Si5864   Si       0.95704    0.97886    0.84515    1.000
    N5865    N        0.92143    0.99199    0.82437    1.000
    N5866    N        0.88869    0.96660    0.76183    1.000
    Si5867   Si       0.88380    0.97055    0.82830    1.000
    N5868    N        0.98972    0.96885    0.81909    1.000
    Si5869   Si       0.83260    0.95762    0.87864    1.000
    Si5870   Si       0.76004    0.98779    0.88990    1.000
    N5871    N        0.77740    0.95810    0.97835    1.000
    Si5872   Si       0.99111    0.98081    0.90201    1.000
    N5873    N        0.87632    0.00816    0.93232    1.000
    N5874    N        0.96415    0.99985    0.93287    1.000
    N5875    N        0.96312    0.97258    0.99480    1.000
    N5876    N        0.96046    0.95301    0.87937    1.000
    Si5877   Si       0.87503    0.96539    0.94701    1.000
    Si5878   Si       0.98063    0.00401    0.97122    1.000
    N5879    N        0.88508    0.96900    0.99410    1.000
