# CIF file generated by openbabel 3.1.1, see https://openbabel.org
data_I
_chemical_name_common '3.01-24.aims'
_cell_length_a 39.9032
_cell_length_b 39.9032
_cell_length_c 39.9032
_cell_angle_alpha 90
_cell_angle_beta 90
_cell_angle_gamma 90
loop_
    _atom_site_label
    _atom_site_type_symbol
    _atom_site_fract_x
    _atom_site_fract_y
    _atom_site_fract_z
    _atom_site_occupancy
    Si0      Si       0.02419    0.08611    0.04623    1.000
    N1       N        0.03232    0.04367    0.03278    1.000
    Si2      Si       0.00230    0.02113    0.01129    1.000
    N3       N        0.01500    0.09531    0.00398    1.000
    N4       N        0.04682    0.05413    0.10497    1.000
    N5       N        0.99069    0.08848    0.07353    1.000
    N6       N        0.99177    0.01753    0.09663    1.000
    Si7      Si       0.99103    0.13085    0.99635    1.000
    N8       N        0.00519    0.20184    0.10757    1.000
    Si9      Si       0.02077    0.20429    0.06506    1.000
    Si10     Si       0.01047    0.24225    0.00821    1.000
    N11      N        0.98969    0.21501    0.03666    1.000
    Si12     Si       0.99317    0.24232    0.12274    1.000
    N13      N        0.04330    0.17494    0.04005    1.000
    N14      N        0.02477    0.11805    0.12154    1.000
    N15      N        0.99727    0.01725    0.22973    1.000
    N16      N        0.02838    0.09806    0.18637    1.000
    N17      N        0.00849    0.03545    0.16624    1.000
    Si18     Si       0.02251    0.02607    0.12688    1.000
    Si19     Si       0.99116    0.07289    0.18301    1.000
    N20      N        0.05056    0.16896    0.16643    1.000
    Si21     Si       0.04349    0.20136    0.14027    1.000
    Si22     Si       0.02358    0.13497    0.16313    1.000
    N23      N        0.01693    0.23258    0.15999    1.000
    N24      N        0.00777    0.06864    0.28210    1.000
    Si25     Si       0.02759    0.08696    0.35952    1.000
    N26      N        0.03442    0.04612    0.34535    1.000
    Si27     Si       0.03915    0.04543    0.30223    1.000
    Si28     Si       0.99365    0.10620    0.30062    1.000
    Si29     Si       0.02320    0.01139    0.36565    1.000
    N30      N        0.98848    0.09391    0.34164    1.000
    N31      N        0.02025    0.13751    0.28957    1.000
    Si32     Si       0.04349    0.21903    0.29276    1.000
    N33      N        0.01255    0.20353    0.26547    1.000
    Si34     Si       0.01633    0.16109    0.25290    1.000
    Si35     Si       0.02181    0.19837    0.36718    1.000
    N36      N        0.04184    0.19161    0.32916    1.000
    N37      N        0.02397    0.25215    0.36547    1.000
    N38      N        0.99846    0.05989    0.46069    1.000
    Si39     Si       0.99976    0.05765    0.41789    1.000
    Si40     Si       0.03927    0.05463    0.47867    1.000
    N41      N        0.01899    0.09193    0.40129    1.000
    N42      N        0.01572    0.01780    0.40761    1.000
    Si43     Si       0.01880    0.13389    0.40809    1.000
    N44      N        0.00539    0.15673    0.37456    1.000
    N45      N        0.04426    0.20622    0.40377    1.000
    N46      N        0.99821    0.15105    0.44289    1.000
    N47      N        0.02091    0.24044    0.48045    1.000
    N48      N        0.02710    0.12132    0.56956    1.000
    Si49     Si       0.03801    0.04012    0.55985    1.000
    N50      N        0.03879    0.06284    0.52147    1.000
    Si51     Si       0.00658    0.12508    0.60915    1.000
    N52      N        0.99665    0.03764    0.57435    1.000
    N53      N        0.04584    0.13515    0.51486    1.000
    Si54     Si       0.02657    0.16006    0.54513    1.000
    Si55     Si       0.04217    0.18635    0.61633    1.000
    N56      N        0.99239    0.25866    0.53410    1.000
    N57      N        0.00712    0.21106    0.61848    1.000
    N58      N        0.05000    0.18325    0.57296    1.000
    N59      N        0.01478    0.10786    0.68721    1.000
    Si60     Si       0.03199    0.01327    0.66934    1.000
    N61      N        0.03922    0.04345    0.69997    1.000
    Si62     Si       0.03399    0.03383    0.74120    1.000
    N63      N        0.99138    0.09007    0.62604    1.000
    N64      N        0.99133    0.00696    0.65548    1.000
    N65      N        0.01827    0.25694    0.71943    1.000
    N66      N        0.03305    0.15090    0.72975    1.000
    N67      N        0.04089    0.19640    0.68612    1.000
    Si68     Si       0.03196    0.14878    0.68465    1.000
    Si69     Si       0.01271    0.21545    0.71163    1.000
    N70      N        0.02689    0.14969    0.63833    1.000
    Si71     Si       0.00476    0.25271    0.62746    1.000
    N72      N        0.03836    0.07954    0.81634    1.000
    Si73     Si       0.03155    0.12145    0.82811    1.000
    N74      N        0.00010    0.06097    0.75412    1.000
    Si75     Si       0.99897    0.06692    0.79861    1.000
    N76      N        0.00511    0.11343    0.86337    1.000
    N77      N        0.04925    0.01646    0.84612    1.000
    Si78     Si       0.01572    0.24689    0.77446    1.000
    N79      N        0.00588    0.20636    0.75398    1.000
    Si80     Si       0.03448    0.19138    0.82346    1.000
    Si81     Si       0.01029    0.16497    0.76312    1.000
    N82      N        0.02004    0.15564    0.80537    1.000
    N83      N        0.01196    0.22879    0.81464    1.000
    Si84     Si       0.00282    0.24587    0.85429    1.000
    N85      N        0.02638    0.18593    0.86564    1.000
    N86      N        0.04372    0.25412    0.86905    1.000
    Si87     Si       0.01398    0.01467    0.87155    1.000
    N88      N        0.01674    0.09770    0.93484    1.000
    N89      N        0.00911    0.03298    0.96922    1.000
    Si90     Si       0.02058    0.08393    0.89359    1.000
    Si91     Si       0.02974    0.07241    0.96848    1.000
    N92      N        0.99439    0.05119    0.88450    1.000
    N93      N        0.04382    0.22262    0.98984    1.000
    Si94     Si       0.01658    0.14224    0.93307    1.000
    N95      N        0.01793    0.15708    0.97380    1.000
    N96      N        0.01758    0.34880    0.03097    1.000
    N97      N        0.02004    0.28009    0.02550    1.000
    Si98     Si       0.03162    0.27329    0.06831    1.000
    Si99     Si       0.03564    0.31636    0.00594    1.000
    N100     N        0.99253    0.26951    0.08819    1.000
    Si101    Si       0.03520    0.38093    0.05735    1.000
    N102     N        0.04052    0.38636    0.10089    1.000
    N103     N        0.03024    0.42512    0.05600    1.000
    N104     N        0.00634    0.49161    0.04828    1.000
    Si105    Si       0.99945    0.44964    0.03790    1.000
    Si106    Si       0.03702    0.50848    0.07374    1.000
    N107     N        0.00150    0.44495    0.99555    1.000
    N108     N        0.99173    0.36435    0.14519    1.000
    Si109    Si       0.01860    0.26651    0.18738    1.000
    Si110    Si       0.00013    0.33970    0.18065    1.000
    N111     N        0.04130    0.34572    0.19428    1.000
    N112     N        0.00694    0.26168    0.22918    1.000
    N113     N        0.99014    0.29819    0.17221    1.000
    N114     N        0.01407    0.44074    0.12458    1.000
    Si115    Si       0.01751    0.45156    0.16684    1.000
    Si116    Si       0.01770    0.39828    0.13663    1.000
    N117     N        0.03557    0.40995    0.17306    1.000
    Si118    Si       0.01901    0.28736    0.26034    1.000
    N119     N        0.03497    0.32149    0.33853    1.000
    Si120    Si       0.03967    0.27755    0.33403    1.000
    N121     N        0.01440    0.37675    0.27314    1.000
    Si122    Si       0.99498    0.32585    0.32140    1.000
    N123     N        0.03021    0.26253    0.29564    1.000
    N124     N        0.02852    0.38531    0.35416    1.000
    Si125    Si       0.03331    0.41289    0.26161    1.000
    Si126    Si       0.01492    0.49050    0.31630    1.000
    N127     N        0.01442    0.45151    0.33807    1.000
    N128     N        0.00389    0.44054    0.25094    1.000
    Si129    Si       0.04764    0.42121    0.33669    1.000
    N130     N        0.03177    0.28309    0.42653    1.000
    N131     N        0.00227    0.33185    0.45854    1.000
    Si132    Si       0.01729    0.28244    0.46724    1.000
    Si133    Si       0.01564    0.37313    0.47821    1.000
    Si134    Si       0.01814    0.32363    0.41685    1.000
    N135     N        0.04045    0.45869    0.42564    1.000
    Si136    Si       0.02874    0.49634    0.44055    1.000
    N137     N        0.99823    0.49142    0.47049    1.000
    N138     N        0.00814    0.41532    0.46384    1.000
    N139     N        0.01312    0.36278    0.52080    1.000
    Si140    Si       0.01308    0.31077    0.59996    1.000
    N141     N        0.03687    0.30358    0.56159    1.000
    Si142    Si       0.03541    0.26831    0.53394    1.000
    Si143    Si       0.04010    0.32994    0.52773    1.000
    N144     N        0.04462    0.29549    0.50016    1.000
    Si145    Si       0.99978    0.46628    0.55578    1.000
    N146     N        0.04027    0.46415    0.57342    1.000
    Si147    Si       0.04785    0.50538    0.55776    1.000
    N148     N        0.00569    0.50838    0.54759    1.000
    N149     N        0.03207    0.41361    0.61845    1.000
    N150     N        0.03427    0.34374    0.62524    1.000
    N151     N        0.04119    0.27460    0.62332    1.000
    Si152    Si       0.99903    0.29585    0.72707    1.000
    Si153    Si       0.01240    0.34274    0.66449    1.000
    N154     N        0.02394    0.32659    0.70612    1.000
    N155     N        0.99773    0.38197    0.67304    1.000
    Si156    Si       0.99420    0.41166    0.64047    1.000
    Si157    Si       0.03078    0.47198    0.73831    1.000
    N158     N        0.99060    0.47495    0.72328    1.000
    N159     N        0.03368    0.39129    0.73102    1.000
    Si160    Si       0.03540    0.29774    0.86533    1.000
    N161     N        0.99704    0.28685    0.77208    1.000
    N162     N        0.99303    0.29046    0.84877    1.000
    N163     N        0.00906    0.39157    0.80112    1.000
    Si164    Si       0.03291    0.41026    0.77216    1.000
    Si165    Si       0.00418    0.46742    0.81295    1.000
    N166     N        0.03204    0.45047    0.84114    1.000
    N167     N        0.02189    0.45152    0.77575    1.000
    Si168    Si       0.02281    0.40567    0.84257    1.000
    N169     N        0.03983    0.32859    0.89455    1.000
    N170     N        0.02011    0.31980    0.96556    1.000
    Si171    Si       0.02192    0.34637    0.92986    1.000
    Si172    Si       0.04087    0.45121    0.97687    1.000
    N173     N        0.99284    0.40024    0.87200    1.000
    N174     N        0.01889    0.52493    0.11025    1.000
    N175     N        0.03638    0.60642    0.02712    1.000
    N176     N        0.03787    0.62664    0.09524    1.000
    N177     N        0.00065    0.55646    0.02551    1.000
    Si178    Si       0.99499    0.59810    0.01592    1.000
    Si179    Si       0.04460    0.56363    0.02144    1.000
    N180     N        0.01268    0.69629    0.00726    1.000
    Si181    Si       0.00361    0.63301    0.12070    1.000
    N182     N        0.04256    0.53442    0.24069    1.000
    Si183    Si       0.99822    0.62065    0.22577    1.000
    Si184    Si       0.00540    0.56398    0.17259    1.000
    N185     N        0.99541    0.59825    0.14663    1.000
    N186     N        0.00269    0.57983    0.21223    1.000
    N187     N        0.04294    0.54100    0.17335    1.000
    N188     N        0.03282    0.71948    0.21953    1.000
    N189     N        0.01557    0.66702    0.14403    1.000
    Si190    Si       0.99857    0.70830    0.14583    1.000
    Si191    Si       0.99934    0.69317    0.21517    1.000
    N192     N        0.03031    0.73911    0.15049    1.000
    N193     N        0.01911    0.65401    0.20703    1.000
    Si194    Si       0.04754    0.65507    0.17533    1.000
    Si195    Si       0.02508    0.56712    0.33418    1.000
    N196     N        0.00907    0.52327    0.34470    1.000
    N197     N        0.01870    0.60857    0.26311    1.000
    Si198    Si       0.01329    0.56641    0.25496    1.000
    Si199    Si       0.99626    0.63061    0.33459    1.000
    Si200    Si       0.04882    0.61435    0.29407    1.000
    N201     N        0.04050    0.63088    0.33397    1.000
    N202     N        0.05278    0.56311    0.36646    1.000
    N203     N        0.03310    0.69262    0.28307    1.000
    Si204    Si       0.03818    0.73131    0.26217    1.000
    N205     N        0.00240    0.75568    0.27581    1.000
    Si206    Si       0.99217    0.68463    0.28650    1.000
    Si207    Si       0.03711    0.52434    0.37831    1.000
    N208     N        0.01347    0.60392    0.48578    1.000
    N209     N        0.01467    0.52756    0.41412    1.000
    Si210    Si       0.02701    0.60744    0.44472    1.000
    N211     N        0.99190    0.59891    0.41848    1.000
    N212     N        0.00326    0.66950    0.49197    1.000
    Si213    Si       0.01853    0.70977    0.48953    1.000
    N214     N        0.03288    0.64544    0.42629    1.000
    N215     N        0.02771    0.71520    0.44443    1.000
    Si216    Si       0.99226    0.64378    0.40774    1.000
    N217     N        0.01881    0.63454    0.55414    1.000
    Si218    Si       0.02690    0.63774    0.51010    1.000
    N219     N        0.02447    0.65899    0.61805    1.000
    N220     N        0.03319    0.76095    0.55172    1.000
    N221     N        0.98987    0.73692    0.50639    1.000
    N222     N        0.99702    0.51647    0.62212    1.000
    N223     N        0.99525    0.60203    0.72601    1.000
    Si224    Si       0.04030    0.52203    0.62723    1.000
    N225     N        0.99780    0.58398    0.65269    1.000
    Si226    Si       0.04061    0.59116    0.65272    1.000
    Si227    Si       0.02224    0.72284    0.65239    1.000
    N228     N        0.00080    0.75086    0.68231    1.000
    Si229    Si       0.00894    0.53314    0.76974    1.000
    N230     N        0.02851    0.57263    0.78106    1.000
    N231     N        0.03365    0.55894    0.85205    1.000
    N232     N        0.02088    0.62541    0.82604    1.000
    Si233    Si       0.99534    0.54167    0.84227    1.000
    N234     N        0.00276    0.51249    0.80791    1.000
    Si235    Si       0.04448    0.58957    0.81917    1.000
    Si236    Si       0.03462    0.59996    0.74795    1.000
    N237     N        0.04081    0.51262    0.74791    1.000
    Si238    Si       0.04168    0.65746    0.80443    1.000
    N239     N        0.01491    0.68841    0.79379    1.000
    Si240    Si       0.03814    0.71922    0.77002    1.000
    N241     N        0.00433    0.74287    0.75531    1.000
    N242     N        0.01597    0.74295    0.87586    1.000
    N243     N        0.99596    0.59602    0.97326    1.000
    Si244    Si       0.01665    0.58073    0.93707    1.000
    N245     N        0.03577    0.60806    0.90881    1.000
    N246     N        0.04214    0.54439    0.93086    1.000
    Si247    Si       0.02093    0.68234    0.96323    1.000
    N248     N        0.02192    0.72115    0.94292    1.000
    N249     N        0.99439    0.65741    0.93971    1.000
    N250     N        0.02875    0.67346    0.88737    1.000
    Si251    Si       0.03373    0.71539    0.90065    1.000
    Si252    Si       0.00639    0.63997    0.90142    1.000
    Si253    Si       0.01437    0.80966    0.01402    1.000
    Si254    Si       0.00299    0.78210    0.07927    1.000
    N255     N        0.00119    0.81818    0.05481    1.000
    N256     N        0.01080    0.88079    0.10374    1.000
    N257     N        0.04327    0.77543    0.09266    1.000
    Si258    Si       0.99184    0.84419    0.08941    1.000
    Si259    Si       0.01598    0.90860    0.07166    1.000
    N260     N        0.02597    0.95135    0.08356    1.000
    N261     N        0.99472    0.98137    0.02508    1.000
    Si262    Si       0.99492    0.97827    0.06885    1.000
    N263     N        0.03291    0.80002    0.15836    1.000
    N264     N        0.02114    0.80137    0.22437    1.000
    Si265    Si       0.00192    0.81814    0.18770    1.000
    N266     N        0.02472    0.85698    0.17788    1.000
    Si267    Si       0.99996    0.77238    0.14241    1.000
    N268     N        0.04442    0.98461    0.20269    1.000
    N269     N        0.99202    0.97649    0.14706    1.000
    N270     N        0.02424    0.92779    0.24197    1.000
    Si271    Si       0.00384    0.99706    0.19008    1.000
    Si272    Si       0.01794    0.88863    0.14742    1.000
    N273     N        0.04719    0.92247    0.14671    1.000
    Si274    Si       0.03941    0.00937    0.24070    1.000
    Si275    Si       0.00782    0.79797    0.26568    1.000
    N276     N        0.03760    0.81307    0.29487    1.000
    N277     N        0.01275    0.87861    0.29699    1.000
    Si278    Si       0.04291    0.77716    0.36215    1.000
    N279     N        0.03930    0.94058    0.30927    1.000
    Si280    Si       0.03977    0.91098    0.27863    1.000
    Si281    Si       0.00438    0.94704    0.33389    1.000
    N282     N        0.04361    0.00648    0.28347    1.000
    N283     N        0.01368    0.92746    0.37122    1.000
    N284     N        0.00500    0.79504    0.37125    1.000
    Si285    Si       0.00258    0.83270    0.39064    1.000
    N286     N        0.03666    0.85718    0.40265    1.000
    N287     N        0.02406    0.85124    0.47489    1.000
    N288     N        0.03681    0.78234    0.46070    1.000
    Si289    Si       0.02939    0.87765    0.43978    1.000
    Si290    Si       0.00310    0.80919    0.46539    1.000
    N291     N        0.03969    0.95751    0.42973    1.000
    Si292    Si       0.01997    0.99408    0.44229    1.000
    N293     N        0.99482    0.89970    0.43020    1.000
    N294     N        0.02088    0.85985    0.55344    1.000
    Si295    Si       0.02311    0.83704    0.51790    1.000
    N296     N        0.01072    0.79057    0.61090    1.000
    N297     N        0.99643    0.80459    0.50965    1.000
    Si298    Si       0.99489    0.76788    0.53359    1.000
    Si299    Si       0.04417    0.77093    0.59437    1.000
    N300     N        0.03400    0.92784    0.55657    1.000
    Si301    Si       0.02070    0.92285    0.59792    1.000
    Si302    Si       0.03588    0.96726    0.53652    1.000
    N303     N        0.99487    0.97827    0.52630    1.000
    N304     N        0.02040    0.95928    0.61960    1.000
    N305     N        0.00792    0.87185    0.73512    1.000
    Si306    Si       0.01641    0.76731    0.72113    1.000
    N307     N        0.01096    0.86224    0.67298    1.000
    Si308    Si       0.03942    0.87445    0.70451    1.000
    N309     N        0.02099    0.80541    0.73834    1.000
    Si310    Si       0.04327    0.87110    0.64511    1.000
    N311     N        0.04276    0.97455    0.68805    1.000
    N312     N        0.04870    0.92935    0.73136    1.000
    N313     N        0.00893    0.99659    0.74410    1.000
    Si314    Si       0.01515    0.96071    0.72104    1.000
    Si315    Si       0.01414    0.83822    0.76565    1.000
    N316     N        0.02043    0.81574    0.86376    1.000
    Si317    Si       0.99207    0.84157    0.84410    1.000
    N318     N        0.99290    0.83752    0.80260    1.000
    N319     N        0.00352    0.88073    0.85842    1.000
    Si320    Si       0.00962    0.91688    0.83272    1.000
    N321     N        0.02790    0.90056    0.79741    1.000
    Si322    Si       0.01817    0.90700    0.75582    1.000
    N323     N        0.03837    0.94557    0.85318    1.000
    N324     N        0.99828    0.77234    0.99265    1.000
    Si325    Si       0.00083    0.78216    0.88643    1.000
    N326     N        0.02034    0.78601    0.92494    1.000
    N327     N        0.99720    0.83810    0.98596    1.000
    Si328    Si       0.99929    0.75729    0.95247    1.000
    N329     N        0.99002    0.91693    0.98134    1.000
    N330     N        0.03677    0.96764    0.96628    1.000
    Si331    Si       0.01451    0.88819    0.89923    1.000
    N332     N        0.01112    0.93093    0.91275    1.000
    Si333    Si       0.01326    0.99766    0.94589    1.000
    Si334    Si       0.02282    0.92782    0.95711    1.000
    N335     N        0.03236    0.99384    0.90667    1.000
    Si336    Si       0.04538    0.95632    0.89426    1.000
    Si337    Si       0.07440    0.03202    0.03277    1.000
    Si338    Si       0.07662    0.02265    0.09948    1.000
    N339     N        0.05791    0.10966    0.06314    1.000
    Si340    Si       0.05724    0.09702    0.10405    1.000
    N341     N        0.10432    0.06327    0.04063    1.000
    N342     N        0.08926    0.01074    0.99626    1.000
    Si343    Si       0.06980    0.15093    0.06227    1.000
    N344     N        0.07590    0.17419    0.10121    1.000
    Si345    Si       0.08542    0.21805    0.09243    1.000
    N346     N        0.05042    0.23508    0.07098    1.000
    N347     N        0.09306    0.10810    0.12697    1.000
    N348     N        0.06400    0.04275    0.23214    1.000
    N349     N        0.07781    0.05266    0.17064    1.000
    Si350    Si       0.06367    0.07761    0.20274    1.000
    N351     N        0.08391    0.10039    0.23496    1.000
    Si352    Si       0.07767    0.17455    0.19811    1.000
    N353     N        0.07686    0.23030    0.13301    1.000
    Si354    Si       0.10435    0.21620    0.24304    1.000
    Si355    Si       0.10129    0.15046    0.13441    1.000
    N356     N        0.08787    0.21874    0.20387    1.000
    N357     N        0.05545    0.16028    0.23301    1.000
    Si358    Si       0.09013    0.24728    0.17210    1.000
    N359     N        0.07758    0.06119    0.29498    1.000
    N360     N        0.05828    0.11493    0.34645    1.000
    Si361    Si       0.09505    0.06334    0.25475    1.000
    Si362    Si       0.09652    0.11511    0.36431    1.000
    N363     N        0.08848    0.14696    0.29466    1.000
    N364     N        0.08614    0.22631    0.27952    1.000
    Si365    Si       0.08989    0.13983    0.25229    1.000
    Si366    Si       0.05272    0.14942    0.31816    1.000
    Si367    Si       0.10903    0.25696    0.30247    1.000
    N368     N        0.09893    0.09002    0.39974    1.000
    Si369    Si       0.08553    0.10879    0.43606    1.000
    N370     N        0.07465    0.07212    0.46112    1.000
    N371     N        0.10484    0.13146    0.46966    1.000
    N372     N        0.04909    0.01315    0.47014    1.000
    Si373    Si       0.04826    0.25196    0.40193    1.000
    N374     N        0.08941    0.25498    0.46541    1.000
    Si375    Si       0.06773    0.18152    0.42940    1.000
    N376     N        0.06128    0.14082    0.41893    1.000
    N377     N        0.06715    0.18766    0.47244    1.000
    N378     N        0.09266    0.25646    0.39850    1.000
    Si379    Si       0.06206    0.22833    0.48681    1.000
    Si380    Si       0.08037    0.15694    0.49704    1.000
    N381     N        0.09585    0.09866    0.53449    1.000
    N382     N        0.06496    0.06801    0.57998    1.000
    Si383    Si       0.05325    0.09847    0.54296    1.000
    Si384    Si       0.07685    0.05853    0.62074    1.000
    Si385    Si       0.08585    0.20378    0.55366    1.000
    N386     N        0.06481    0.23504    0.52982    1.000
    N387     N        0.10152    0.16987    0.53270    1.000
    N388     N        0.05393    0.02455    0.63243    1.000
    N389     N        0.07811    0.08570    0.65453    1.000
    N390     N        0.08230    0.09378    0.71916    1.000
    Si391    Si       0.05029    0.08329    0.68983    1.000
    Si392    Si       0.08178    0.18749    0.67493    1.000
    N393     N        0.07819    0.14624    0.68929    1.000
    N394     N        0.10637    0.25147    0.63898    1.000
    N395     N        0.08086    0.19163    0.63194    1.000
    Si396    Si       0.07601    0.13528    0.73525    1.000
    Si397    Si       0.07724    0.08014    0.78722    1.000
    Si398    Si       0.06527    0.05666    0.84532    1.000
    N399     N        0.06999    0.04141    0.76456    1.000
    N400     N        0.07435    0.12263    0.77834    1.000
    N401     N        0.10116    0.06844    0.82409    1.000
    N402     N        0.06726    0.13996    0.84752    1.000
    Si403    Si       0.08672    0.15171    0.80998    1.000
    Si404    Si       0.08754    0.23128    0.79193    1.000
    N405     N        0.07313    0.19242    0.80172    1.000
    Si406    Si       0.08430    0.23963    0.86855    1.000
    N407     N        0.10688    0.24269    0.83146    1.000
    N408     N        0.06047    0.07101    0.88621    1.000
    N409     N        0.07024    0.06039    0.95832    1.000
    Si410    Si       0.08955    0.06751    0.91852    1.000
    N411     N        0.09311    0.19944    0.88258    1.000
    N412     N        0.08412    0.15794    0.98249    1.000
    Si413    Si       0.06378    0.16760    0.87992    1.000
    N414     N        0.05582    0.15201    0.91905    1.000
    Si415    Si       0.09167    0.14440    0.94123    1.000
    Si416    Si       0.04878    0.17920    0.99629    1.000
    Si417    Si       0.08437    0.33179    0.04632    1.000
    N418     N        0.07889    0.31086    0.00819    1.000
    N419     N        0.07693    0.37350    0.04310    1.000
    N420     N        0.06111    0.30674    0.07392    1.000
    Si421    Si       0.09783    0.47447    0.11206    1.000
    N422     N        0.06328    0.47514    0.08553    1.000
    Si423    Si       0.09676    0.40294    0.01712    1.000
    Si424    Si       0.04785    0.43441    0.09530    1.000
    N425     N        0.06032    0.27849    0.18444    1.000
    Si426    Si       0.06478    0.31417    0.20856    1.000
    N427     N        0.09825    0.37501    0.16864    1.000
    N428     N        0.10504    0.32516    0.21816    1.000
    Si429    Si       0.06107    0.38424    0.19374    1.000
    Si430    Si       0.07870    0.44648    0.21368    1.000
    N431     N        0.06645    0.40787    0.23164    1.000
    N432     N        0.08517    0.43394    0.12335    1.000
    N433     N        0.04772    0.47207    0.19273    1.000
    N434     N        0.09367    0.36527    0.35502    1.000
    N435     N        0.08282    0.27157    0.33538    1.000
    Si436    Si       0.09299    0.32242    0.26123    1.000
    N437     N        0.09859    0.35802    0.28650    1.000
    Si438    Si       0.05426    0.35193    0.36467    1.000
    N439     N        0.05285    0.31061    0.25054    1.000
    Si440    Si       0.08051    0.46481    0.28992    1.000
    N441     N        0.07834    0.43173    0.36374    1.000
    N442     N        0.06381    0.42183    0.29458    1.000
    Si443    Si       0.09268    0.39794    0.26887    1.000
    N444     N        0.05151    0.49612    0.29564    1.000
    N445     N        0.09178    0.47037    0.24780    1.000
    N446     N        0.10016    0.33432    0.47097    1.000
    Si447    Si       0.08330    0.35910    0.43671    1.000
    Si448    Si       0.09186    0.29290    0.48560    1.000
    N449     N        0.05465    0.34492    0.40802    1.000
    N450     N        0.05871    0.37900    0.47107    1.000
    Si451    Si       0.05247    0.42218    0.45357    1.000
    Si452    Si       0.10317    0.39813    0.38582    1.000
    Si453    Si       0.07419    0.45904    0.39758    1.000
    N454     N        0.07081    0.49816    0.37750    1.000
    N455     N        0.07778    0.44591    0.48228    1.000
    Si456    Si       0.08259    0.48767    0.49033    1.000
    N457     N        0.08018    0.40980    0.42131    1.000
    N458     N        0.07954    0.34542    0.53216    1.000
    N459     N        0.10321    0.30502    0.58864    1.000
    N460     N        0.09958    0.37287    0.61166    1.000
    Si461    Si       0.09008    0.36746    0.49753    1.000
    Si462    Si       0.05491    0.44976    0.61202    1.000
    Si463    Si       0.08285    0.28620    0.62320    1.000
    N464     N        0.08865    0.33960    0.71834    1.000
    N465     N        0.09672    0.31726    0.65077    1.000
    Si466    Si       0.05977    0.37896    0.62812    1.000
    Si467    Si       0.04923    0.34813    0.73522    1.000
    N468     N        0.06102    0.48570    0.63462    1.000
    N469     N        0.06400    0.38570    0.66993    1.000
    Si470    Si       0.06811    0.40861    0.70549    1.000
    N471     N        0.09688    0.43999    0.62193    1.000
    N472     N        0.06186    0.45160    0.71357    1.000
    Si473    Si       0.09788    0.47517    0.71329    1.000
    N474     N        0.11207    0.40474    0.70768    1.000
    Si475    Si       0.10728    0.48443    0.63028    1.000
    Si476    Si       0.07280    0.30109    0.79309    1.000
    Si477    Si       0.07475    0.36778    0.80924    1.000
    N478     N        0.06376    0.30759    0.83423    1.000
    N479     N        0.05865    0.34335    0.77676    1.000
    N480     N        0.05801    0.37922    0.84794    1.000
    N481     N        0.05802    0.26202    0.77966    1.000
    N482     N        0.07496    0.40831    0.78665    1.000
    Si483    Si       0.06931    0.46817    0.85371    1.000
    N484     N        0.09429    0.47367    0.81803    1.000
    Si485    Si       0.10375    0.44091    0.78840    1.000
    N486     N        0.10224    0.26843    0.89370    1.000
    Si487    Si       0.06944    0.36017    0.88806    1.000
    N488     N        0.05527    0.37770    0.92632    1.000
    N489     N        0.10996    0.34622    0.88469    1.000
    N490     N        0.06941    0.41718    0.98693    1.000
    Si491    Si       0.07954    0.48032    0.91320    1.000
    N492     N        0.06347    0.50362    0.87793    1.000
    N493     N        0.09584    0.45230    0.88437    1.000
    Si494    Si       0.07428    0.41099    0.94392    1.000
    N495     N        0.05159    0.44984    0.93376    1.000
    N496     N        0.05135    0.49099    0.98530    1.000
    N497     N        0.09014    0.60768    0.05975    1.000
    Si498    Si       0.09106    0.56728    0.07329    1.000
    N499     N        0.05976    0.54031    0.05628    1.000
    N500     N        0.07684    0.57326    0.11370    1.000
    Si501    Si       0.05422    0.62985    0.05552    1.000
    N502     N        0.08686    0.72789    0.00755    1.000
    N503     N        0.07007    0.67086    0.04832    1.000
    Si504    Si       0.05685    0.69305    0.01389    1.000
    N505     N        0.09527    0.65565    0.11717    1.000
    Si506    Si       0.10383    0.66930    0.07670    1.000
    Si507    Si       0.07340    0.61590    0.12155    1.000
    Si508    Si       0.05734    0.53790    0.13169    1.000
    N509     N        0.06951    0.61763    0.16540    1.000
    N510     N        0.09908    0.51852    0.20315    1.000
    Si511    Si       0.05538    0.51361    0.20334    1.000
    N512     N        0.09353    0.51180    0.13429    1.000
    N513     N        0.09672    0.74261    0.13544    1.000
    N514     N        0.07784    0.68736    0.17879    1.000
    Si515    Si       0.05957    0.72570    0.18410    1.000
    Si516    Si       0.06720    0.53226    0.27655    1.000
    N517     N        0.04934    0.56695    0.29795    1.000
    N518     N        0.10981    0.53821    0.26776    1.000
    N519     N        0.07740    0.64388    0.27918    1.000
    N520     N        0.09627    0.71245    0.27265    1.000
    N521     N        0.09007    0.68366    0.33695    1.000
    Si522    Si       0.07325    0.68383    0.29659    1.000
    Si523    Si       0.06777    0.65270    0.36003    1.000
    Si524    Si       0.07432    0.72269    0.36141    1.000
    N525     N        0.05520    0.74849    0.32981    1.000
    N526     N        0.09181    0.62138    0.37877    1.000
    Si527    Si       0.07705    0.58312    0.39563    1.000
    Si528    Si       0.08230    0.55120    0.44952    1.000
    N529     N        0.05865    0.58251    0.43483    1.000
    N530     N        0.06664    0.51325    0.45983    1.000
    N531     N        0.05005    0.68766    0.38199    1.000
    Si532    Si       0.05069    0.68517    0.42418    1.000
    N533     N        0.09263    0.68609    0.44564    1.000
    N534     N        0.05545    0.74993    0.39471    1.000
    Si535    Si       0.08818    0.68167    0.48987    1.000
    Si536    Si       0.05538    0.75054    0.43741    1.000
    N537     N        0.09375    0.76325    0.45245    1.000
    Si538    Si       0.07705    0.57089    0.58548    1.000
    N539     N        0.08212    0.58162    0.54168    1.000
    Si540    Si       0.09414    0.62379    0.53297    1.000
    Si541    Si       0.09699    0.54595    0.52050    1.000
    N542     N        0.05360    0.59780    0.60994    1.000
    N543     N        0.05655    0.53490    0.58820    1.000
    N544     N        0.07332    0.51200    0.52512    1.000
    N545     N        0.08579    0.64381    0.57074    1.000
    Si546    Si       0.06829    0.74381    0.53375    1.000
    N547     N        0.08991    0.72097    0.56479    1.000
    Si548    Si       0.08449    0.71602    0.60736    1.000
    N549     N        0.06825    0.64364    0.50379    1.000
    N550     N        0.06015    0.71228    0.50415    1.000
    Si551    Si       0.04549    0.63686    0.58698    1.000
    N552     N        0.04842    0.73653    0.62074    1.000
    Si553    Si       0.09122    0.60763    0.69815    1.000
    Si554    Si       0.09290    0.54273    0.67418    1.000
    N555     N        0.09739    0.51930    0.71117    1.000
    N556     N        0.05763    0.62483    0.67287    1.000
    N557     N        0.06787    0.58017    0.72657    1.000
    N558     N        0.05326    0.55005    0.65864    1.000
    Si559    Si       0.07251    0.53903    0.74240    1.000
    N560     N        0.08632    0.67701    0.62575    1.000
    Si561    Si       0.05411    0.66172    0.64976    1.000
    Si562    Si       0.06888    0.71554    0.70491    1.000
    N563     N        0.06188    0.69486    0.74302    1.000
    N564     N        0.04705    0.69563    0.67421    1.000
    N565     N        0.05991    0.75817    0.71445    1.000
    N566     N        0.08876    0.59663    0.81518    1.000
    N567     N        0.09248    0.53750    0.77976    1.000
    N568     N        0.05408    0.63486    0.76869    1.000
    N569     N        0.07090    0.73975    0.79108    1.000
    N570     N        0.07202    0.67039    0.83195    1.000
    Si571    Si       0.08672    0.66050    0.75399    1.000
    Si572    Si       0.06690    0.52649    0.96237    1.000
    Si573    Si       0.07959    0.60782    0.90722    1.000
    N574     N        0.09133    0.57009    0.88952    1.000
    N575     N        0.09124    0.60953    0.94861    1.000
    Si576    Si       0.05536    0.54521    0.88728    1.000
    N577     N        0.07422    0.55905    0.99007    1.000
    Si578    Si       0.10972    0.58256    0.97715    1.000
    N579     N        0.10079    0.50885    0.93915    1.000
    Si580    Si       0.07326    0.67469    0.87455    1.000
    N581     N        0.07619    0.71635    0.88903    1.000
    Si582    Si       0.09706    0.64439    0.97216    1.000
    N583     N        0.06121    0.66808    0.97818    1.000
    N584     N        0.09683    0.64144    0.88810    1.000
    Si585    Si       0.10406    0.75496    0.97559    1.000
    N586     N        0.08173    0.83412    0.08557    1.000
    Si587    Si       0.06929    0.79786    0.06420    1.000
    N588     N        0.09274    0.86317    0.01706    1.000
    N589     N        0.05635    0.80574    0.02523    1.000
    Si590    Si       0.08766    0.87091    0.06273    1.000
    N591     N        0.10408    0.77323    0.06361    1.000
    N592     N        0.08587    0.94654    0.09698    1.000
    N593     N        0.07236    0.94495    0.01743    1.000
    Si594    Si       0.06577    0.95730    0.05931    1.000
    Si595    Si       0.06769    0.90229    0.01066    1.000
    N596     N        0.07198    0.00005    0.06502    1.000
    N597     N        0.05048    0.89568    0.05114    1.000
    Si598    Si       0.05035    0.95584    0.12167    1.000
    N599     N        0.09399    0.80294    0.14471    1.000
    Si600    Si       0.08241    0.87618    0.23085    1.000
    Si601    Si       0.06120    0.76997    0.13327    1.000
    Si602    Si       0.06125    0.83294    0.16806    1.000
    Si603    Si       0.06282    0.79117    0.22245    1.000
    N604     N        0.08629    0.86476    0.14922    1.000
    N605     N        0.08007    0.83363    0.21045    1.000
    N606     N        0.08251    0.76229    0.19603    1.000
    Si607    Si       0.05987    0.94647    0.22239    1.000
    Si608    Si       0.07188    0.00874    0.17388    1.000
    Si609    Si       0.08436    0.90559    0.16379    1.000
    N610     N        0.05534    0.99887    0.13353    1.000
    N611     N        0.07678    0.91073    0.20597    1.000
    N612     N        0.07544    0.80281    0.34735    1.000
    N613     N        0.06507    0.86824    0.33872    1.000
    Si614    Si       0.07114    0.78175    0.30549    1.000
    N615     N        0.06696    0.76774    0.26112    1.000
    Si616    Si       0.09860    0.83863    0.34326    1.000
    N617     N        0.06793    0.87868    0.27056    1.000
    Si618    Si       0.04768    0.85367    0.30119    1.000
    Si619    Si       0.06580    0.97178    0.29630    1.000
    N620     N        0.08228    0.95959    0.25759    1.000
    Si621    Si       0.09765    0.99291    0.35468    1.000
    N622     N        0.05762    0.98460    0.36578    1.000
    N623     N        0.10525    0.96971    0.31789    1.000
    N624     N        0.09336    0.83244    0.45866    1.000
    Si625    Si       0.07990    0.79498    0.48042    1.000
    Si626    Si       0.07117    0.86149    0.48553    1.000
    Si627    Si       0.06740    0.87841    0.38025    1.000
    N628     N        0.06692    0.89509    0.45514    1.000
    Si629    Si       0.08054    0.98526    0.47936    1.000
    N630     N        0.07702    0.91945    0.39465    1.000
    Si631    Si       0.07648    0.93226    0.43521    1.000
    N632     N        0.10210    0.96195    0.44748    1.000
    Si633    Si       0.04672    0.94983    0.38756    1.000
    N634     N        0.07607    0.79626    0.58299    1.000
    Si635    Si       0.09106    0.82912    0.60661    1.000
    Si636    Si       0.09268    0.81534    0.54724    1.000
    N637     N        0.06562    0.82586    0.51367    1.000
    N638     N        0.09324    0.85423    0.57195    1.000
    N639     N        0.09569    0.77396    0.51864    1.000
    Si640    Si       0.05483    0.88596    0.56241    1.000
    N641     N        0.07679    0.88917    0.51861    1.000
    N642     N        0.06895    0.95957    0.51162    1.000
    Si643    Si       0.09383    0.92806    0.52726    1.000
    N644     N        0.08923    0.96978    0.61844    1.000
    Si645    Si       0.05105    0.98870    0.61000    1.000
    N646     N        0.10321    0.92342    0.57004    1.000
    N647     N        0.04660    0.88995    0.60746    1.000
    N648     N        0.04702    0.99815    0.56678    1.000
    Si649    Si       0.09502    0.82950    0.67714    1.000
    N650     N        0.06873    0.83740    0.64300    1.000
    N651     N        0.07108    0.84553    0.71242    1.000
    Si652    Si       0.10318    0.76811    0.71426    1.000
    N653     N        0.05665    0.90168    0.67454    1.000
    Si654    Si       0.06730    0.93820    0.69166    1.000
    N655     N        0.07825    0.86374    0.84241    1.000
    N656     N        0.05595    0.84129    0.77774    1.000
    Si657    Si       0.06388    0.87627    0.80271    1.000
    N658     N        0.10451    0.79537    0.74972    1.000
    Si659    Si       0.05724    0.83941    0.87161    1.000
    Si660    Si       0.06502    0.81549    0.74397    1.000
    Si661    Si       0.07361    0.94036    0.76793    1.000
    Si662    Si       0.06311    0.97654    0.83198    1.000
    N663     N        0.09157    0.90718    0.78732    1.000
    N664     N        0.05352    0.96739    0.79185    1.000
    N665     N        0.10584    0.97510    0.84146    1.000
    N666     N        0.10280    0.96880    0.75070    1.000
    N667     N        0.05464    0.87157    0.90118    1.000
    N668     N        0.08436    0.80757    0.88591    1.000
    Si669    Si       0.06311    0.79706    0.92567    1.000
    Si670    Si       0.07355    0.87080    0.94087    1.000
    N671     N        0.07106    0.82963    0.95559    1.000
    N672     N        0.08678    0.76070    0.93681    1.000
    Si673    Si       0.08371    0.82539    0.99660    1.000
    Si674    Si       0.07569    0.97111    0.98495    1.000
    N675     N        0.08192    0.93464    0.90109    1.000
    N676     N        0.05298    0.89814    0.96924    1.000
    Si677    Si       0.09149    0.89391    0.88511    1.000
    Si678    Si       0.13466    0.05201    0.07151    1.000
    N679     N        0.15396    0.09158    0.07097    1.000
    Si680    Si       0.12132    0.10429    0.04259    1.000
    N681     N        0.13433    0.11552    0.00310    1.000
    N682     N        0.11224    0.04307    0.10744    1.000
    N683     N        0.16142    0.02399    0.05697    1.000
    N684     N        0.11239    0.14972    0.05017    1.000
    Si685    Si       0.13808    0.17708    0.07485    1.000
    N686     N        0.12525    0.21765    0.07719    1.000
    Si687    Si       0.14918    0.25125    0.06592    1.000
    Si688    Si       0.12244    0.15778    0.00163    1.000
    N689     N        0.13956    0.16066    0.11506    1.000
    N690     N        0.13950    0.19592    0.99866    1.000
    N691     N        0.14109    0.06235    0.16677    1.000
    Si692    Si       0.13784    0.02816    0.19339    1.000
    N693     N        0.15163    0.11834    0.21881    1.000
    N694     N        0.12886    0.04394    0.23375    1.000
    Si695    Si       0.10780    0.06871    0.14303    1.000
    N696     N        0.13261    0.25647    0.16636    1.000
    Si697    Si       0.14769    0.16032    0.20512    1.000
    N698     N        0.11886    0.17326    0.24071    1.000
    N699     N        0.11014    0.15459    0.17703    1.000
    N700     N        0.14185    0.05296    0.29620    1.000
    N701     N        0.12609    0.09698    0.33860    1.000
    N702     N        0.15278    0.12248    0.28828    1.000
    Si703    Si       0.15644    0.02981    0.26341    1.000
    Si704    Si       0.10849    0.05952    0.32455    1.000
    N705     N        0.10840    0.03406    0.35798    1.000
    Si706    Si       0.16334    0.08883    0.31285    1.000
    Si707    Si       0.12621    0.15090    0.31684    1.000
    N708     N        0.15176    0.18471    0.30646    1.000
    N709     N        0.14029    0.24703    0.33291    1.000
    Si710    Si       0.15656    0.18813    0.26334    1.000
    N711     N        0.14579    0.22918    0.25057    1.000
    Si712    Si       0.16813    0.21311    0.33584    1.000
    N713     N        0.10874    0.15594    0.35771    1.000
    N714     N        0.11937    0.02271    0.42344    1.000
    N715     N        0.13949    0.07111    0.47330    1.000
    Si716    Si       0.12444    0.05338    0.39393    1.000
    Si717    Si       0.10905    0.04160    0.46328    1.000
    N718     N        0.16417    0.07235    0.39361    1.000
    Si719    Si       0.12000    0.10190    0.49811    1.000
    N720     N        0.14212    0.14350    0.41562    1.000
    Si721    Si       0.12859    0.16352    0.45136    1.000
    Si722    Si       0.12906    0.17574    0.39021    1.000
    N723     N        0.15775    0.18055    0.47667    1.000
    N724     N        0.10807    0.19496    0.42402    1.000
    Si725    Si       0.11325    0.23866    0.43422    1.000
    N726     N        0.15443    0.24460    0.44623    1.000
    N727     N        0.16428    0.19542    0.37567    1.000
    N728     N        0.15328    0.12270    0.51772    1.000
    N729     N        0.14892    0.06222    0.54898    1.000
    N730     N        0.12974    0.11842    0.58510    1.000
    N731     N        0.11797    0.05310    0.60770    1.000
    Si732    Si       0.11452    0.07828    0.57120    1.000
    Si733    Si       0.16163    0.02281    0.56291    1.000
    Si734    Si       0.15413    0.11867    0.62161    1.000
    Si735    Si       0.13181    0.14410    0.55041    1.000
    N736     N        0.16353    0.23344    0.52115    1.000
    N737     N        0.11852    0.21808    0.57729    1.000
    Si738    Si       0.15794    0.21339    0.55927    1.000
    Si739    Si       0.11474    0.21413    0.61865    1.000
    Si740    Si       0.15433    0.03747    0.62968    1.000
    Si741    Si       0.11974    0.07319    0.72899    1.000
    N742     N        0.14289    0.09566    0.69922    1.000
    N743     N        0.12201    0.03183    0.72221    1.000
    Si744    Si       0.15395    0.01433    0.69862    1.000
    N745     N        0.16639    0.07947    0.63731    1.000
    Si746    Si       0.10485    0.11324    0.67884    1.000
    Si747    Si       0.13322    0.24561    0.67489    1.000
    N748     N        0.11349    0.15841    0.74513    1.000
    Si749    Si       0.14984    0.17557    0.66906    1.000
    N750     N        0.15293    0.20333    0.63671    1.000
    N751     N        0.12125    0.20125    0.69021    1.000
    N752     N        0.13119    0.13882    0.65275    1.000
    Si753    Si       0.12841    0.19575    0.73405    1.000
    Si754    Si       0.13908    0.06087    0.80436    1.000
    N755     N        0.13048    0.08512    0.76866    1.000
    N756     N        0.13142    0.01864    0.79361    1.000
    Si757    Si       0.13913    0.12810    0.76811    1.000
    N758     N        0.15018    0.02604    0.86716    1.000
    Si759    Si       0.10308    0.01143    0.75821    1.000
    Si760    Si       0.15567    0.13596    0.84280    1.000
    N761     N        0.12867    0.14022    0.80846    1.000
    N762     N        0.15482    0.17469    0.86335    1.000
    N763     N        0.11552    0.23124    0.75647    1.000
    Si764    Si       0.14923    0.25610    0.82787    1.000
    Si765    Si       0.14754    0.11929    0.91907    1.000
    N766     N        0.15008    0.04712    0.98926    1.000
    N767     N        0.15290    0.10639    0.87846    1.000
    N768     N        0.11548    0.03229    0.92552    1.000
    Si769    Si       0.10895    0.03857    0.96872    1.000
    N770     N        0.10630    0.10415    0.93261    1.000
    N771     N        0.12956    0.15976    0.92661    1.000
    Si772    Si       0.14735    0.23832    0.99135    1.000
    Si773    Si       0.13431    0.19127    0.89551    1.000
    N774     N        0.15336    0.22355    0.91659    1.000
    N775     N        0.14074    0.28259    0.09507    1.000
    N776     N        0.12906    0.32824    0.04367    1.000
    Si777    Si       0.15571    0.31670    0.07486    1.000
    Si778    Si       0.15417    0.34771    0.01398    1.000
    Si779    Si       0.11871    0.29315    0.99973    1.000
    N780     N        0.13675    0.26309    0.02542    1.000
    N781     N        0.13012    0.38080    0.99773    1.000
    N782     N        0.13708    0.47166    0.09653    1.000
    Si783    Si       0.14378    0.46861    0.05283    1.000
    N784     N        0.12135    0.43323    0.03591    1.000
    Si785    Si       0.16177    0.41408    0.02305    1.000
    N786     N        0.16208    0.50625    0.04233    1.000
    Si787    Si       0.15080    0.28424    0.13891    1.000
    Si788    Si       0.12634    0.34693    0.18699    1.000
    N789     N        0.14496    0.32667    0.15304    1.000
    N790     N        0.15473    0.37470    0.20422    1.000
    N791     N        0.15428    0.50037    0.16609    1.000
    Si792    Si       0.16244    0.49505    0.12366    1.000
    N793     N        0.14890    0.40615    0.13069    1.000
    N794     N        0.16062    0.50153    0.23449    1.000
    N795     N        0.11227    0.43569    0.18943    1.000
    Si796    Si       0.10958    0.41283    0.15180    1.000
    Si797    Si       0.11873    0.50446    0.24061    1.000
    Si798    Si       0.14498    0.41752    0.21321    1.000
    Si799    Si       0.12261    0.35595    0.32486    1.000
    N800     N        0.14722    0.32183    0.32998    1.000
    Si801    Si       0.15443    0.30983    0.28914    1.000
    Si802    Si       0.11727    0.27003    0.36431    1.000
    N803     N        0.11660    0.29119    0.27799    1.000
    N804     N        0.14451    0.39284    0.31670    1.000
    Si805    Si       0.15068    0.49292    0.32605    1.000
    N806     N        0.13180    0.40633    0.25364    1.000
    N807     N        0.11585    0.47623    0.30892    1.000
    Si808    Si       0.16441    0.38941    0.27744    1.000
    N809     N        0.15362    0.28431    0.38479    1.000
    N810     N        0.12410    0.36307    0.41518    1.000
    N811     N        0.12469    0.48127    0.49455    1.000
    N812     N        0.11334    0.47348    0.41203    1.000
    N813     N        0.14176    0.41968    0.38222    1.000
    Si814    Si       0.12091    0.43779    0.48656    1.000
    Si815    Si       0.14753    0.44800    0.41295    1.000
    N816     N        0.14695    0.43179    0.45490    1.000
    N817     N        0.12259    0.29481    0.51806    1.000
    N818     N        0.14633    0.35346    0.55586    1.000
    N819     N        0.16396    0.33092    0.61832    1.000
    Si820    Si       0.11334    0.32439    0.55093    1.000
    Si821    Si       0.16395    0.27837    0.51877    1.000
    Si822    Si       0.11993    0.33608    0.61800    1.000
    Si823    Si       0.15963    0.50154    0.51256    1.000
    Si824    Si       0.14888    0.39633    0.54403    1.000
    N825     N        0.12871    0.49264    0.59182    1.000
    N826     N        0.14074    0.42264    0.57906    1.000
    N827     N        0.11917    0.39889    0.51027    1.000
    Si828    Si       0.16129    0.46158    0.58102    1.000
    Si829    Si       0.12490    0.40784    0.61486    1.000
    Si830    Si       0.12508    0.36614    0.71787    1.000
    N831     N        0.14670    0.33792    0.69223    1.000
    N832     N        0.11593    0.27220    0.70417    1.000
    Si833    Si       0.10938    0.31404    0.69050    1.000
    N834     N        0.15445    0.41200    0.64827    1.000
    Si835    Si       0.14787    0.50809    0.68017    1.000
    N836     N        0.12945    0.46770    0.68285    1.000
    Si837    Si       0.14840    0.42835    0.68981    1.000
    Si838    Si       0.13783    0.33537    0.78509    1.000
    N839     N        0.14655    0.29617    0.84579    1.000
    Si840    Si       0.13509    0.36794    0.85720    1.000
    N841     N        0.11707    0.35691    0.81694    1.000
    N842     N        0.13886    0.36696    0.75575    1.000
    N843     N        0.11393    0.29949    0.77539    1.000
    Si844    Si       0.13072    0.27156    0.74617    1.000
    N845     N        0.14433    0.42830    0.79661    1.000
    N846     N        0.14188    0.40974    0.86444    1.000
    N847     N        0.11421    0.46588    0.75422    1.000
    Si848    Si       0.15875    0.46503    0.75856    1.000
    N849     N        0.15435    0.50601    0.78422    1.000
    Si850    Si       0.16039    0.40333    0.76531    1.000
    Si851    Si       0.11449    0.50935    0.80544    1.000
    Si852    Si       0.12329    0.30520    0.88214    1.000
    N853     N        0.15186    0.31745    0.98279    1.000
    N854     N        0.14926    0.29838    0.91684    1.000
    Si855    Si       0.13159    0.26028    0.92711    1.000
    N856     N        0.11874    0.26146    0.96647    1.000
    N857     N        0.15970    0.46281    0.91308    1.000
    Si858    Si       0.14748    0.39557    0.95980    1.000
    N859     N        0.11850    0.41218    0.93435    1.000
    Si860    Si       0.13176    0.43374    0.89797    1.000
    N861     N        0.16561    0.49908    0.96895    1.000
    Si862    Si       0.13286    0.60645    0.04541    1.000
    N863     N        0.13152    0.56453    0.06053    1.000
    N864     N        0.12387    0.61650    0.00295    1.000
    N865     N        0.13742    0.64597    0.06400    1.000
    Si866    Si       0.12981    0.72928    0.11249    1.000
    N867     N        0.15544    0.74336    0.03331    1.000
    Si868    Si       0.11322    0.73579    0.04249    1.000
    N869     N        0.11407    0.70965    0.07546    1.000
    Si870    Si       0.16014    0.64384    0.99633    1.000
    Si871    Si       0.11020    0.60309    0.18505    1.000
    Si872    Si       0.11919    0.52894    0.16524    1.000
    N873     N        0.13125    0.57027    0.16638    1.000
    N874     N        0.10796    0.59775    0.22762    1.000
    N875     N        0.14559    0.69754    0.13894    1.000
    N876     N        0.13604    0.66423    0.24375    1.000
    N877     N        0.13162    0.64052    0.17822    1.000
    Si878    Si       0.11201    0.67221    0.15455    1.000
    Si879    Si       0.15836    0.65549    0.20820    1.000
    N880     N        0.15029    0.76115    0.18827    1.000
    N881     N        0.13402    0.61023    0.28428    1.000
    Si882    Si       0.13068    0.57549    0.25683    1.000
    N883     N        0.16075    0.62564    0.34673    1.000
    N884     N        0.14398    0.51486    0.36094    1.000
    Si885    Si       0.10993    0.63173    0.25581    1.000
    Si886    Si       0.15930    0.63907    0.30589    1.000
    Si887    Si       0.13715    0.69926    0.26976    1.000
    N888     N        0.14935    0.68066    0.30764    1.000
    Si889    Si       0.13579    0.69625    0.34876    1.000
    N890     N        0.11689    0.73446    0.36171    1.000
    Si891    Si       0.11060    0.75722    0.26055    1.000
    N892     N        0.14999    0.73626    0.25044    1.000
    Si893    Si       0.14468    0.56957    0.43097    1.000
    N894     N        0.15178    0.60931    0.41220    1.000
    Si895    Si       0.11185    0.51139    0.39060    1.000
    Si896    Si       0.13401    0.63182    0.37968    1.000
    N897     N        0.11008    0.56268    0.48173    1.000
    N898     N        0.10729    0.55335    0.41015    1.000
    N899     N        0.15681    0.66398    0.45531    1.000
    Si900    Si       0.13255    0.69063    0.42781    1.000
    N901     N        0.14862    0.73037    0.42353    1.000
    Si902    Si       0.15265    0.74889    0.38159    1.000
    N903     N        0.13507    0.67294    0.38852    1.000
    N904     N        0.13918    0.53760    0.53262    1.000
    Si905    Si       0.13816    0.53190    0.57726    1.000
    N906     N        0.11906    0.56519    0.59819    1.000
    N907     N        0.13203    0.62211    0.51380    1.000
    Si908    Si       0.14654    0.58028    0.50548    1.000
    N909     N        0.13942    0.63014    0.62349    1.000
    N910     N        0.14016    0.68752    0.58697    1.000
    N911     N        0.12553    0.68806    0.51296    1.000
    Si912    Si       0.13034    0.70943    0.55088    1.000
    N913     N        0.15623    0.74449    0.54978    1.000
    Si914    Si       0.11407    0.65504    0.60039    1.000
    Si915    Si       0.15458    0.71383    0.61715    1.000
    Si916    Si       0.15573    0.65794    0.49917    1.000
    N917     N        0.11937    0.51962    0.64952    1.000
    Si918    Si       0.13787    0.58734    0.63197    1.000
    N919     N        0.11141    0.58327    0.66960    1.000
    N920     N        0.16016    0.54739    0.70137    1.000
    N921     N        0.16492    0.62717    0.68463    1.000
    N922     N        0.11731    0.73863    0.62402    1.000
    N923     N        0.15640    0.69435    0.65694    1.000
    Si924    Si       0.16615    0.65122    0.64959    1.000
    N925     N        0.15540    0.68452    0.72945    1.000
    N926     N        0.10934    0.63672    0.72405    1.000
    Si927    Si       0.15263    0.64297    0.72449    1.000
    N928     N        0.10971    0.72568    0.70324    1.000
    Si929    Si       0.15046    0.71113    0.69610    1.000
    N930     N        0.14951    0.57171    0.76638    1.000
    N931     N        0.12432    0.54231    0.83312    1.000
    Si932    Si       0.11731    0.57060    0.79776    1.000
    N933     N        0.15204    0.59477    0.86583    1.000
    Si934    Si       0.16150    0.53210    0.74692    1.000
    Si935    Si       0.14966    0.69907    0.76966    1.000
    N936     N        0.14437    0.65880    0.84328    1.000
    N937     N        0.14387    0.74154    0.77199    1.000
    N938     N        0.12614    0.72049    0.82987    1.000
    N939     N        0.11648    0.67336    0.77997    1.000
    Si940    Si       0.11359    0.67931    0.82237    1.000
    Si941    Si       0.15040    0.72044    0.86564    1.000
    Si942    Si       0.11259    0.74960    0.80115    1.000
    Si943    Si       0.13074    0.55938    0.87256    1.000
    Si944    Si       0.14109    0.52442    0.93934    1.000
    N945     N        0.14303    0.56155    0.95983    1.000
    N946     N        0.15833    0.53268    0.89727    1.000
    N947     N        0.13233    0.66896    0.96686    1.000
    Si948    Si       0.13732    0.63595    0.87885    1.000
    Si949    Si       0.15198    0.70284    0.94697    1.000
    N950     N        0.13936    0.70788    0.90571    1.000
    N951     N        0.14494    0.74070    0.96604    1.000
    Si952    Si       0.10714    0.74100    0.90589    1.000
    Si953    Si       0.13732    0.86912    0.01247    1.000
    N954     N        0.15747    0.84734    0.04180    1.000
    Si955    Si       0.15863    0.86261    0.08257    1.000
    N956     N        0.15166    0.83609    0.11791    1.000
    Si957    Si       0.10903    0.83657    0.12133    1.000
    N958     N        0.12151    0.88521    0.08698    1.000
    Si959    Si       0.12219    0.92708    0.10607    1.000
    N960     N        0.14076    0.91223    0.01749    1.000
    N961     N        0.15550    0.94339    0.08424    1.000
    N962     N        0.16172    0.97062    0.00905    1.000
    Si963    Si       0.16417    0.94013    0.04292    1.000
    Si964    Si       0.11413    0.77078    0.16736    1.000
    N965     N        0.12705    0.87417    0.23326    1.000
    Si966    Si       0.12264    0.83261    0.21900    1.000
    N967     N        0.15000    0.82742    0.18897    1.000
    N968     N        0.12610    0.80179    0.24702    1.000
    Si969    Si       0.13795    0.95914    0.17161    1.000
    Si970    Si       0.15531    0.90722    0.23720    1.000
    N971     N        0.15640    0.94436    0.20790    1.000
    N972     N        0.16261    0.97869    0.14168    1.000
    N973     N        0.11984    0.92533    0.14991    1.000
    N974     N        0.11169    0.99303    0.18261    1.000
    Si975    Si       0.13977    0.80869    0.28951    1.000
    N976     N        0.12306    0.84328    0.30853    1.000
    N977     N        0.11636    0.77403    0.30187    1.000
    Si978    Si       0.14285    0.88383    0.30332    1.000
    N979     N        0.13609    0.90077    0.34448    1.000
    N980     N        0.14011    0.91956    0.27699    1.000
    Si981    Si       0.12229    0.95820    0.27782    1.000
    N982     N        0.15050    0.98764    0.26253    1.000
    Si983    Si       0.13419    0.94388    0.34661    1.000
    N984     N        0.10553    0.85484    0.38429    1.000
    Si985    Si       0.11244    0.83071    0.42028    1.000
    Si986    Si       0.13540    0.76435    0.44566    1.000
    Si987    Si       0.14595    0.87845    0.38383    1.000
    N988     N        0.15635    0.77322    0.48278    1.000
    N989     N        0.15310    0.85291    0.42424    1.000
    N990     N        0.13446    0.79436    0.41126    1.000
    N991     N        0.11239    0.01027    0.49262    1.000
    N992     N        0.12490    0.97083    0.37980    1.000
    Si993    Si       0.13229    0.98244    0.42172    1.000
    N994     N        0.13879    0.81349    0.54064    1.000
    Si995    Si       0.13901    0.77392    0.52187    1.000
    N996     N        0.14276    0.88153    0.61321    1.000
    N997     N        0.14844    0.88314    0.53662    1.000
    Si998    Si       0.12490    0.88527    0.57366    1.000
    N999     N        0.12990    0.99033    0.56300    1.000
    Si1000   Si       0.13826    0.98885    0.51979    1.000
    N1001    N        0.13423    0.94426    0.51314    1.000
    Si1002   Si       0.12105    0.95807    0.58850    1.000
    N1003    N        0.15076    0.94950    0.62171    1.000
    Si1004   Si       0.16373    0.91330    0.50874    1.000
    N1005    N        0.12931    0.81506    0.62057    1.000
    N1006    N        0.13273    0.85041    0.67690    1.000
    Si1007   Si       0.15335    0.84726    0.63761    1.000
    Si1008   Si       0.12956    0.77647    0.64053    1.000
    Si1009   Si       0.15092    0.87964    0.70295    1.000
    N1010    N        0.10594    0.78815    0.67664    1.000
    N1011    N        0.16356    0.97633    0.71865    1.000
    N1012    N        0.13157    0.90589    0.72973    1.000
    Si1013   Si       0.13116    0.94906    0.72221    1.000
    N1014    N        0.10860    0.94942    0.68427    1.000
    Si1015   Si       0.12067    0.96932    0.64798    1.000
    N1016    N        0.13851    0.00792    0.65738    1.000
    N1017    N        0.13284    0.85444    0.79178    1.000
    Si1018   Si       0.11883    0.79778    0.86045    1.000
    Si1019   Si       0.13051    0.81272    0.78186    1.000
    Si1020   Si       0.12266    0.86389    0.83328    1.000
    N1021    N        0.14059    0.83631    0.86053    1.000
    N1022    N        0.11837    0.78954    0.81550    1.000
    Si1023   Si       0.13098    0.89511    0.77261    1.000
    N1024    N        0.12364    0.90511    0.85660    1.000
    Si1025   Si       0.13438    0.94578    0.85825    1.000
    Si1026   Si       0.14079    0.00044    0.83180    1.000
    N1027    N        0.16172    0.92271    0.78598    1.000
    N1028    N        0.11569    0.79596    0.98892    1.000
    Si1029   Si       0.15431    0.81320    0.97029    1.000
    N1030    N        0.14675    0.85535    0.97286    1.000
    N1031    N        0.15918    0.80413    0.93009    1.000
    N1032    N        0.13853    0.76214    0.88044    1.000
    Si1033   Si       0.15243    0.88008    0.93965    1.000
    N1034    N        0.11136    0.88708    0.92500    1.000
    Si1035   Si       0.11807    0.93531    0.92500    1.000
    Si1036   Si       0.14511    0.00620    0.90630    1.000
    N1037    N        0.16058    0.92299    0.94474    1.000
    N1038    N        0.14218    0.96245    0.89920    1.000
    Si1039   Si       0.14469    0.94061    0.98310    1.000
    N1040    N        0.10956    0.95708    0.96093    1.000
    N1041    N        0.19831    0.08977    0.01667    1.000
    Si1042   Si       0.19623    0.09195    0.06065    1.000
    Si1043   Si       0.20440    0.02004    0.06349    1.000
    N1044    N        0.21705    0.05759    0.07994    1.000
    Si1045   Si       0.16583    0.01443    0.01464    1.000
    N1046    N        0.20941    0.00830    0.02134    1.000
    N1047    N        0.17977    0.17678    0.05927    1.000
    Si1048   Si       0.21192    0.16133    0.08599    1.000
    N1049    N        0.19183    0.24500    0.06221    1.000
    Si1050   Si       0.20887    0.20747    0.04523    1.000
    N1051    N        0.22801    0.20847    0.00747    1.000
    Si1052   Si       0.21904    0.09613    0.16708    1.000
    N1053    N        0.20111    0.07311    0.20072    1.000
    N1054    N        0.18109    0.11821    0.15631    1.000
    Si1055   Si       0.21593    0.02622    0.18406    1.000
    N1056    N        0.17701    0.01072    0.19981    1.000
    Si1057   Si       0.22650    0.06294    0.24186    1.000
    Si1058   Si       0.16390    0.09140    0.18783    1.000
    Si1059   Si       0.22155    0.18393    0.23334    1.000
    Si1060   Si       0.16934    0.23200    0.17015    1.000
    N1061    N        0.19355    0.24663    0.20419    1.000
    N1062    N        0.18284    0.16651    0.23915    1.000
    N1063    N        0.21051    0.16873    0.12765    1.000
    Si1064   Si       0.17396    0.15751    0.14441    1.000
    N1065    N        0.16561    0.18739    0.17654    1.000
    N1066    N        0.19905    0.07474    0.33101    1.000
    N1067    N        0.20634    0.09666    0.26655    1.000
    N1068    N        0.20002    0.03105    0.26343    1.000
    Si1069   Si       0.17696    0.12509    0.25390    1.000
    N1070    N        0.20688    0.22814    0.32797    1.000
    N1071    N        0.21268    0.21658    0.26127    1.000
    Si1072   Si       0.22086    0.25571    0.35907    1.000
    Si1073   Si       0.18390    0.24774    0.24648    1.000
    Si1074   Si       0.19961    0.05943    0.37226    1.000
    N1075    N        0.20011    0.01634    0.37679    1.000
    Si1076   Si       0.18204    0.06960    0.46479    1.000
    N1077    N        0.18998    0.10975    0.44535    1.000
    N1078    N        0.20925    0.04379    0.44373    1.000
    Si1079   Si       0.17099    0.11208    0.40662    1.000
    N1080    N        0.20041    0.13053    0.37981    1.000
    N1081    N        0.21030    0.17691    0.43115    1.000
    Si1082   Si       0.21764    0.14092    0.45622    1.000
    N1083    N        0.20961    0.24802    0.40299    1.000
    Si1084   Si       0.19799    0.17201    0.39131    1.000
    N1085    N        0.21526    0.22602    0.47395    1.000
    Si1086   Si       0.17239    0.22081    0.47813    1.000
    N1087    N        0.20469    0.11128    0.55863    1.000
    N1088    N        0.18466    0.02530    0.59992    1.000
    Si1089   Si       0.21590    0.03056    0.51920    1.000
    Si1090   Si       0.17727    0.08924    0.53371    1.000
    N1091    N        0.20165    0.06844    0.50422    1.000
    Si1092   Si       0.19968    0.15102    0.57732    1.000
    N1093    N        0.18479    0.23169    0.58747    1.000
    Si1094   Si       0.17592    0.15953    0.50921    1.000
    N1095    N        0.18959    0.14258    0.61791    1.000
    N1096    N        0.16878    0.17186    0.55327    1.000
    N1097    N        0.21665    0.14858    0.49980    1.000
    N1098    N        0.18502    0.04133    0.68829    1.000
    Si1099   Si       0.17987    0.08386    0.67734    1.000
    N1100    N        0.21730    0.10368    0.67027    1.000
    Si1101   Si       0.18567    0.23149    0.63035    1.000
    N1102    N        0.22176    0.22610    0.65107    1.000
    Si1103   Si       0.19720    0.16379    0.72894    1.000
    N1104    N        0.18865    0.16375    0.68477    1.000
    N1105    N        0.17124    0.19959    0.73903    1.000
    Si1106   Si       0.21260    0.14465    0.65427    1.000
    Si1107   Si       0.21145    0.09586    0.82298    1.000
    N1108    N        0.17553    0.07149    0.82520    1.000
    Si1109   Si       0.17110    0.06445    0.86914    1.000
    N1110    N        0.19591    0.13558    0.82595    1.000
    N1111    N        0.18052    0.13713    0.75776    1.000
    N1112    N        0.19975    0.19305    0.79826    1.000
    Si1113   Si       0.18989    0.19342    0.84216    1.000
    Si1114   Si       0.18990    0.22299    0.76760    1.000
    N1115    N        0.17976    0.23501    0.84843    1.000
    Si1116   Si       0.21474    0.15234    0.78781    1.000
    Si1117   Si       0.21841    0.25170    0.85983    1.000
    N1118    N        0.21983    0.25101    0.75317    1.000
    N1119    N        0.16831    0.25889    0.78883    1.000
    N1120    N        0.17505    0.10653    0.94856    1.000
    N1121    N        0.20959    0.05994    0.89066    1.000
    Si1122   Si       0.21767    0.11651    0.94904    1.000
    Si1123   Si       0.22099    0.02039    0.90669    1.000
    Si1124   Si       0.16475    0.08772    0.98766    1.000
    Si1125   Si       0.22451    0.25052    0.99081    1.000
    N1126    N        0.21666    0.25516    0.90389    1.000
    Si1127   Si       0.19616    0.22835    0.93076    1.000
    N1128    N        0.18515    0.24614    0.97007    1.000
    N1129    N        0.22124    0.19244    0.93667    1.000
    N1130    N        0.19439    0.31147    0.05774    1.000
    Si1131   Si       0.20449    0.35655    0.06526    1.000
    N1132    N        0.18622    0.37568    0.02941    1.000
    Si1133   Si       0.22162    0.27721    0.05935    1.000
    N1134    N        0.16689    0.35548    0.09271    1.000
    N1135    N        0.17980    0.44040    0.05650    1.000
    Si1136   Si       0.21877    0.45250    0.04194    1.000
    N1137    N        0.22132    0.48439    0.00975    1.000
    Si1138   Si       0.16743    0.43619    0.10224    1.000
    N1139    N        0.19617    0.46526    0.11936    1.000
    N1140    N        0.18829    0.26480    0.14122    1.000
    N1141    N        0.20957    0.32503    0.21492    1.000
    N1142    N        0.20125    0.36424    0.15721    1.000
    Si1143   Si       0.19693    0.36403    0.19849    1.000
    Si1144   Si       0.16339    0.36364    0.13336    1.000
    N1145    N        0.17910    0.44189    0.21093    1.000
    N1146    N        0.21837    0.49895    0.19198    1.000
    Si1147   Si       0.21239    0.42788    0.23399    1.000
    Si1148   Si       0.17800    0.48488    0.19816    1.000
    N1149    N        0.18490    0.28628    0.26894    1.000
    N1150    N        0.21387    0.29621    0.34442    1.000
    Si1151   Si       0.17591    0.31218    0.36108    1.000
    Si1152   Si       0.20593    0.32239    0.25684    1.000
    N1153    N        0.17226    0.34670    0.27301    1.000
    Si1154   Si       0.22005    0.37065    0.36466    1.000
    N1155    N        0.20509    0.40520    0.34228    1.000
    N1156    N        0.19938    0.41698    0.27472    1.000
    Si1157   Si       0.21092    0.43470    0.31262    1.000
    N1158    N        0.17837    0.45764    0.33101    1.000
    Si1159   Si       0.21620    0.50056    0.32324    1.000
    N1160    N        0.21481    0.50833    0.36781    1.000
    Si1161   Si       0.16371    0.41785    0.34609    1.000
    Si1162   Si       0.17501    0.27515    0.42085    1.000
    N1163    N        0.18844    0.34816    0.38255    1.000
    N1164    N        0.17566    0.31786    0.43978    1.000
    Si1165   Si       0.20456    0.32308    0.47093    1.000
    N1166    N        0.19548    0.28542    0.49192    1.000
    Si1167   Si       0.16800    0.35724    0.42147    1.000
    N1168    N        0.19671    0.38730    0.44118    1.000
    N1169    N        0.19262    0.45235    0.41644    1.000
    Si1170   Si       0.19094    0.42829    0.45335    1.000
    N1171    N        0.19070    0.50915    0.48491    1.000
    N1172    N        0.21560    0.44534    0.48303    1.000
    Si1173   Si       0.22220    0.47756    0.39817    1.000
    Si1174   Si       0.17975    0.33381    0.57597    1.000
    N1175    N        0.21590    0.35691    0.57501    1.000
    Si1176   Si       0.20699    0.26452    0.57225    1.000
    N1177    N        0.21714    0.28399    0.61029    1.000
    N1178    N        0.17964    0.29328    0.55610    1.000
    Si1179   Si       0.21990    0.37697    0.53492    1.000
    N1180    N        0.20810    0.35097    0.50313    1.000
    N1181    N        0.19553    0.45143    0.60666    1.000
    N1182    N        0.18991    0.40729    0.53644    1.000
    Si1183   Si       0.20483    0.44693    0.52689    1.000
    N1184    N        0.17347    0.47343    0.54103    1.000
    Si1185   Si       0.18443    0.32087    0.70517    1.000
    N1186    N        0.20943    0.32295    0.66821    1.000
    Si1187   Si       0.18797    0.30102    0.63780    1.000
    N1188    N        0.21033    0.33821    0.73477    1.000
    N1189    N        0.16997    0.29025    0.73461    1.000
    N1190    N        0.16785    0.26548    0.65552    1.000
    N1191    N        0.20364    0.44767    0.67509    1.000
    N1192    N        0.21871    0.38748    0.63942    1.000
    N1193    N        0.16809    0.42929    0.73185    1.000
    N1194    N        0.17640    0.49285    0.72534    1.000
    Si1195   Si       0.19560    0.42358    0.63934    1.000
    Si1196   Si       0.20247    0.45947    0.71841    1.000
    Si1197   Si       0.22232    0.48421    0.65653    1.000
    Si1198   Si       0.18340    0.31715    0.83568    1.000
    Si1199   Si       0.19746    0.28683    0.77005    1.000
    N1200    N        0.18139    0.32620    0.79458    1.000
    N1201    N        0.17598    0.35388    0.85819    1.000
    Si1202   Si       0.21690    0.37132    0.85942    1.000
    N1203    N        0.21641    0.29202    0.84770    1.000
    Si1204   Si       0.22004    0.35168    0.78177    1.000
    N1205    N        0.20064    0.38992    0.77579    1.000
    N1206    N        0.19884    0.45950    0.78354    1.000
    N1207    N        0.20636    0.41461    0.84733    1.000
    Si1208   Si       0.18607    0.49092    0.80855    1.000
    N1209    N        0.17055    0.47426    0.84597    1.000
    Si1210   Si       0.16777    0.43047    0.83464    1.000
    Si1211   Si       0.22583    0.42600    0.77255    1.000
    N1212    N        0.21139    0.31394    0.93944    1.000
    N1213    N        0.17459    0.36778    0.94026    1.000
    Si1214   Si       0.21816    0.35844    0.93478    1.000
    Si1215   Si       0.16953    0.32238    0.94443    1.000
    Si1216   Si       0.17765    0.46116    0.95285    1.000
    N1217    N        0.22001    0.46026    0.94731    1.000
    Si1218   Si       0.17372    0.49244    0.88496    1.000
    N1219    N        0.16927    0.42867    0.98218    1.000
    Si1220   Si       0.21261    0.58420    0.03416    1.000
    N1221    N        0.20897    0.55733    0.06683    1.000
    N1222    N        0.17944    0.61270    0.03762    1.000
    N1223    N        0.19610    0.55628    0.00355    1.000
    Si1224   Si       0.18777    0.51295    0.00598    1.000
    Si1225   Si       0.21045    0.62802    0.11729    1.000
    Si1226   Si       0.16847    0.54273    0.06918    1.000
    N1227    N        0.16623    0.53563    0.11315    1.000
    N1228    N        0.17218    0.60580    0.12051    1.000
    Si1229   Si       0.17845    0.65221    0.05716    1.000
    N1230    N        0.18158    0.67432    0.02004    1.000
    N1231    N        0.21136    0.65340    0.08289    1.000
    N1232    N        0.21403    0.72494    0.06035    1.000
    Si1233   Si       0.21396    0.70227    0.02258    1.000
    Si1234   Si       0.18230    0.75516    0.06476    1.000
    N1235    N        0.16391    0.75546    0.10572    1.000
    Si1236   Si       0.16980    0.56734    0.14370    1.000
    N1237    N        0.20914    0.56301    0.16488    1.000
    N1238    N        0.19249    0.62973    0.21391    1.000
    Si1239   Si       0.17317    0.73341    0.21426    1.000
    N1240    N        0.20974    0.72823    0.15069    1.000
    N1241    N        0.17611    0.69338    0.19750    1.000
    N1242    N        0.21154    0.65688    0.15049    1.000
    Si1243   Si       0.18517    0.69267    0.15522    1.000
    Si1244   Si       0.18649    0.52734    0.25935    1.000
    Si1245   Si       0.19995    0.61241    0.35993    1.000
    N1246    N        0.17373    0.56876    0.25070    1.000
    Si1247   Si       0.19854    0.60388    0.25002    1.000
    N1248    N        0.18171    0.51557    0.30306    1.000
    N1249    N        0.19748    0.63382    0.28337    1.000
    Si1250   Si       0.21957    0.72485    0.36343    1.000
    N1251    N        0.17619    0.71510    0.36055    1.000
    N1252    N        0.19752    0.56992    0.36562    1.000
    Si1253   Si       0.17976    0.53187    0.37844    1.000
    Si1254   Si       0.20919    0.59601    0.48575    1.000
    Si1255   Si       0.19767    0.54167    0.45716    1.000
    N1256    N        0.17255    0.57733    0.46693    1.000
    N1257    N        0.17395    0.53634    0.42102    1.000
    N1258    N        0.21397    0.62927    0.45903    1.000
    Si1259   Si       0.18116    0.63575    0.43116    1.000
    N1260    N        0.20922    0.63745    0.39423    1.000
    N1261    N        0.18636    0.59154    0.52610    1.000
    Si1262   Si       0.20178    0.56539    0.55849    1.000
    N1263    N        0.17992    0.53977    0.58464    1.000
    N1264    N        0.21224    0.60229    0.58145    1.000
    Si1265   Si       0.21541    0.62617    0.54360    1.000
    N1266    N        0.19656    0.71756    0.60553    1.000
    Si1267   Si       0.19576    0.74316    0.56920    1.000
    N1268    N        0.19282    0.66054    0.52174    1.000
    N1269    N        0.18859    0.51090    0.65393    1.000
    Si1270   Si       0.19661    0.54095    0.62360    1.000
    N1271    N        0.21597    0.57472    0.69456    1.000
    N1272    N        0.18028    0.57965    0.63993    1.000
    Si1273   Si       0.20659    0.53270    0.70844    1.000
    Si1274   Si       0.17607    0.58459    0.68478    1.000
    Si1275   Si       0.21669    0.60826    0.62559    1.000
    N1276    N        0.18997    0.62666    0.74280    1.000
    Si1277   Si       0.22204    0.69283    0.63142    1.000
    N1278    N        0.17530    0.74635    0.70719    1.000
    N1279    N        0.20629    0.65187    0.63180    1.000
    N1280    N        0.22477    0.71061    0.67065    1.000
    Si1281   Si       0.20030    0.74797    0.67197    1.000
    Si1282   Si       0.18880    0.58680    0.76066    1.000
    N1283    N        0.21351    0.58760    0.79611    1.000
    N1284    N        0.20502    0.54536    0.75068    1.000
    N1285    N        0.22039    0.51695    0.81581    1.000
    Si1286   Si       0.19213    0.61283    0.86702    1.000
    N1287    N        0.21872    0.57775    0.87385    1.000
    N1288    N        0.20898    0.63880    0.83834    1.000
    N1289    N        0.18826    0.68938    0.79216    1.000
    Si1290   Si       0.18503    0.67357    0.83299    1.000
    N1291    N        0.19054    0.70717    0.85888    1.000
    N1292    N        0.21219    0.74671    0.76103    1.000
    N1293    N        0.18409    0.62356    0.96863    1.000
    N1294    N        0.20848    0.56870    0.93749    1.000
    Si1295   Si       0.19924    0.55008    0.90094    1.000
    Si1296   Si       0.18245    0.57935    0.96945    1.000
    N1297    N        0.21661    0.50798    0.89001    1.000
    Si1298   Si       0.17317    0.75527    0.99684    1.000
    N1299    N        0.20887    0.73265    0.99099    1.000
    N1300    N        0.19254    0.68896    0.94331    1.000
    Si1301   Si       0.21861    0.72482    0.94857    1.000
    N1302    N        0.17557    0.63953    0.90008    1.000
    N1303    N        0.20653    0.74787    0.91336    1.000
    Si1304   Si       0.19914    0.64724    0.93477    1.000
    Si1305   Si       0.19145    0.82380    0.02935    1.000
    N1306    N        0.19885    0.79430    0.05917    1.000
    N1307    N        0.21897    0.85435    0.02112    1.000
    N1308    N        0.19569    0.88369    0.08114    1.000
    N1309    N        0.18410    0.79794    0.99534    1.000
    N1310    N        0.20540    0.93231    0.03237    1.000
    N1311    N        0.21522    0.98838    0.08853    1.000
    Si1312   Si       0.18638    0.96540    0.10905    1.000
    Si1313   Si       0.20793    0.96587    0.00556    1.000
    Si1314   Si       0.21810    0.89217    0.04479    1.000
    Si1315   Si       0.21499    0.89243    0.11967    1.000
    N1316    N        0.19614    0.82401    0.23887    1.000
    Si1317   Si       0.17960    0.79635    0.20252    1.000
    N1318    N        0.19907    0.87198    0.15559    1.000
    N1319    N        0.19863    0.79925    0.16133    1.000
    Si1320   Si       0.17417    0.83613    0.15330    1.000
    Si1321   Si       0.19522    0.76587    0.13515    1.000
    N1322    N        0.20255    0.76323    0.22422    1.000
    N1323    N        0.19838    0.89642    0.23826    1.000
    Si1324   Si       0.17565    0.97886    0.22804    1.000
    N1325    N        0.21350    0.93527    0.12674    1.000
    N1326    N        0.18014    0.79357    0.29546    1.000
    Si1327   Si       0.20265    0.78812    0.33306    1.000
    Si1328   Si       0.20757    0.85860    0.26193    1.000
    Si1329   Si       0.20163    0.85923    0.33444    1.000
    N1330    N        0.18355    0.86666    0.29593    1.000
    Si1331   Si       0.20864    0.78871    0.26157    1.000
    N1332    N        0.17426    0.84726    0.36835    1.000
    Si1333   Si       0.20721    0.98371    0.35064    1.000
    N1334    N        0.17535    0.95397    0.33830    1.000
    Si1335   Si       0.19539    0.92589    0.36436    1.000
    N1336    N        0.22137    0.89683    0.34575    1.000
    N1337    N        0.21308    0.96704    0.24271    1.000
    N1338    N        0.18404    0.78091    0.37270    1.000
    N1339    N        0.17345    0.84066    0.49026    1.000
    Si1340   Si       0.18922    0.80075    0.47881    1.000
    N1341    N        0.19865    0.80120    0.43458    1.000
    Si1342   Si       0.17937    0.86577    0.45673    1.000
    Si1343   Si       0.21850    0.77980    0.40358    1.000
    N1344    N        0.22198    0.86023    0.45017    1.000
    Si1345   Si       0.17156    0.81818    0.40010    1.000
    Si1346   Si       0.20703    0.00421    0.41854    1.000
    Si1347   Si       0.18412    0.93169    0.43558    1.000
    N1348    N        0.17598    0.97577    0.43217    1.000
    N1349    N        0.17189    0.91222    0.39786    1.000
    N1350    N        0.16688    0.90632    0.46663    1.000
    N1351    N        0.22640    0.95446    0.37616    1.000
    N1352    N        0.22739    0.92631    0.43837    1.000
    N1353    N        0.20431    0.84572    0.55710    1.000
    N1354    N        0.20703    0.78158    0.58488    1.000
    N1355    N        0.21298    0.79182    0.51486    1.000
    Si1356   Si       0.16568    0.84394    0.53174    1.000
    N1357    N        0.20392    0.92128    0.52099    1.000
    N1358    N        0.20678    0.89834    0.60970    1.000
    N1359    N        0.17891    0.00768    0.52587    1.000
    Si1360   Si       0.20254    0.79403    0.62591    1.000
    N1361    N        0.18703    0.86688    0.72589    1.000
    N1362    N        0.19484    0.83625    0.63427    1.000
    N1363    N        0.16966    0.76764    0.64532    1.000
    N1364    N        0.17592    0.90180    0.67317    1.000
    Si1365   Si       0.21075    0.89434    0.70140    1.000
    Si1366   Si       0.17058    0.91285    0.62739    1.000
    N1367    N        0.21979    0.92773    0.72783    1.000
    Si1368   Si       0.20368    0.96770    0.72956    1.000
    N1369    N        0.20756    0.87025    0.85512    1.000
    N1370    N        0.21387    0.85769    0.78864    1.000
    N1371    N        0.16994    0.80594    0.76086    1.000
    Si1372   Si       0.20066    0.83525    0.75368    1.000
    Si1373   Si       0.17418    0.76379    0.74834    1.000
    Si1374   Si       0.19033    0.95257    0.79948    1.000
    N1375    N        0.21235    0.97581    0.77072    1.000
    Si1376   Si       0.20641    0.96519    0.85752    1.000
    N1377    N        0.16902    0.96818    0.83641    1.000
    Si1378   Si       0.17967    0.84212    0.87779    1.000
    N1379    N        0.20124    0.80640    0.87942    1.000
    Si1380   Si       0.17533    0.77816    0.90124    1.000
    N1381    N        0.18637    0.86816    0.91365    1.000
    Si1382   Si       0.19081    0.95169    0.92850    1.000
    N1383    N        0.21708    0.95271    0.96432    1.000
    Si1384   Si       0.21359    0.89267    0.89123    1.000
    N1385    N        0.18611    0.99838    0.92326    1.000
    N1386    N        0.21281    0.93817    0.89154    1.000
    Si1387   Si       0.26895    0.11498    0.06770    1.000
    N1388    N        0.27232    0.09791    0.02669    1.000
    N1389    N        0.27364    0.02034    0.09425    1.000
    Si1390   Si       0.25190    0.05415    0.10952    1.000
    Si1391   Si       0.23721    0.10245    0.00183    1.000
    N1392    N        0.27749    0.09089    0.10237    1.000
    N1393    N        0.22512    0.12309    0.07080    1.000
    N1394    N        0.23984    0.19253    0.07294    1.000
    Si1395   Si       0.27715    0.18296    0.09113    1.000
    N1396    N        0.24825    0.03093    0.21278    1.000
    N1397    N        0.23865    0.06028    0.15209    1.000
    N1398    N        0.27442    0.09110    0.21453    1.000
    Si1399   Si       0.27264    0.05751    0.18665    1.000
    N1400    N        0.23626    0.19589    0.19553    1.000
    N1401    N        0.25435    0.24289    0.15299    1.000
    Si1402   Si       0.27134    0.13478    0.20992    1.000
    N1403    N        0.24325    0.13251    0.17492    1.000
    Si1404   Si       0.23790    0.24031    0.19292    1.000
    N1405    N        0.27869    0.17628    0.13574    1.000
    Si1406   Si       0.24130    0.17251    0.15884    1.000
    N1407    N        0.25227    0.15390    0.24383    1.000
    N1408    N        0.25917    0.06691    0.27032    1.000
    N1409    N        0.26585    0.06604    0.32789    1.000
    Si1410   Si       0.23345    0.08551    0.30365    1.000
    N1411    N        0.23702    0.12703    0.31655    1.000
    Si1412   Si       0.27303    0.07580    0.36850    1.000
    N1413    N        0.27513    0.11950    0.37638    1.000
    Si1414   Si       0.28252    0.03937    0.29731    1.000
    Si1415   Si       0.23908    0.13578    0.35876    1.000
    Si1416   Si       0.26159    0.14838    0.28508    1.000
    N1417    N        0.26632    0.18833    0.30201    1.000
    N1418    N        0.26434    0.24309    0.35494    1.000
    Si1419   Si       0.23681    0.22203    0.29756    1.000
    N1420    N        0.26290    0.25495    0.28881    1.000
    N1421    N        0.23621    0.17850    0.36830    1.000
    N1422    N        0.25231    0.11587    0.44999    1.000
    Si1423   Si       0.24286    0.07436    0.43471    1.000
    N1424    N        0.23706    0.07109    0.39153    1.000
    Si1425   Si       0.26995    0.01320    0.45844    1.000
    N1426    N        0.24867    0.01661    0.49558    1.000
    N1427    N        0.27864    0.05245    0.44314    1.000
    Si1428   Si       0.26552    0.20801    0.37993    1.000
    N1429    N        0.26810    0.21434    0.42236    1.000
    Si1430   Si       0.22739    0.22048    0.43261    1.000
    N1431    N        0.24273    0.07455    0.61121    1.000
    Si1432   Si       0.23952    0.08656    0.56830    1.000
    N1433    N        0.26986    0.10832    0.54520    1.000
    N1434    N        0.23401    0.04517    0.55701    1.000
    Si1435   Si       0.22788    0.03150    0.59771    1.000
    Si1436   Si       0.24793    0.14364    0.52990    1.000
    N1437    N        0.23753    0.16496    0.56667    1.000
    Si1438   Si       0.26220    0.17908    0.60022    1.000
    N1439    N        0.25989    0.22237    0.59540    1.000
    Si1440   Si       0.27226    0.24575    0.56109    1.000
    N1441    N        0.23413    0.25741    0.54054    1.000
    N1442    N        0.25355    0.04102    0.66671    1.000
    Si1443   Si       0.25020    0.08343    0.65186    1.000
    N1444    N        0.23314    0.05526    0.73474    1.000
    Si1445   Si       0.28111    0.01655    0.64199    1.000
    Si1446   Si       0.22628    0.03282    0.69883    1.000
    N1447    N        0.28250    0.17012    0.70137    1.000
    N1448    N        0.25099    0.15981    0.63786    1.000
    N1449    N        0.26949    0.24520    0.70954    1.000
    Si1450   Si       0.25844    0.23945    0.63864    1.000
    Si1451   Si       0.27790    0.15468    0.74140    1.000
    N1452    N        0.24636    0.09508    0.84823    1.000
    Si1453   Si       0.25552    0.08245    0.75733    1.000
    Si1454   Si       0.27001    0.11544    0.81838    1.000
    N1455    N        0.23767    0.10836    0.78787    1.000
    N1456    N        0.25241    0.23324    0.84144    1.000
    Si1457   Si       0.26316    0.18967    0.85113    1.000
    N1458    N        0.26814    0.15839    0.82029    1.000
    N1459    N        0.23517    0.16766    0.75011    1.000
    N1460    N        0.28170    0.24859    0.77648    1.000
    N1461    N        0.22222    0.18591    0.86814    1.000
    N1462    N        0.28242    0.07852    0.90929    1.000
    N1463    N        0.23054    0.12546    0.90952    1.000
    N1464    N        0.25529    0.02076    0.93289    1.000
    Si1465   Si       0.24200    0.08755    0.89108    1.000
    Si1466   Si       0.27180    0.05877    0.94907    1.000
    N1467    N        0.23973    0.08277    0.96360    1.000
    N1468    N        0.28242    0.18645    0.97503    1.000
    Si1469   Si       0.23676    0.16740    0.90395    1.000
    N1470    N        0.23118    0.14041    0.98247    1.000
    Si1471   Si       0.24007    0.18164    0.97510    1.000
    N1472    N        0.27767    0.16959    0.88781    1.000
    N1473    N        0.25321    0.25973    0.95964    1.000
    N1474    N        0.24688    0.28291    0.09377    1.000
    N1475    N        0.24366    0.35559    0.04376    1.000
    N1476    N        0.24563    0.27275    0.02421    1.000
    Si1477   Si       0.26746    0.36647    0.07769    1.000
    N1478    N        0.23000    0.36395    0.10265    1.000
    Si1479   Si       0.24045    0.38147    0.01001    1.000
    N1480    N        0.24867    0.46449    0.07127    1.000
    Si1481   Si       0.23816    0.47549    0.11309    1.000
    N1482    N        0.23243    0.42295    0.01047    1.000
    N1483    N        0.27340    0.34305    0.21483    1.000
    Si1484   Si       0.24115    0.35215    0.14240    1.000
    Si1485   Si       0.24799    0.30941    0.20047    1.000
    N1486    N        0.25579    0.27041    0.21871    1.000
    N1487    N        0.24604    0.31034    0.15826    1.000
    Si1488   Si       0.22998    0.27531    0.13472    1.000
    N1489    N        0.26730    0.38435    0.15842    1.000
    N1490    N        0.26364    0.44821    0.13398    1.000
    Si1491   Si       0.26777    0.38411    0.20238    1.000
    N1492    N        0.22594    0.39299    0.21353    1.000
    Si1493   Si       0.24798    0.49589    0.22351    1.000
    N1494    N        0.24425    0.45545    0.23714    1.000
    Si1495   Si       0.24547    0.31393    0.32134    1.000
    N1496    N        0.24264    0.32160    0.27883    1.000
    N1497    N        0.25084    0.35333    0.33782    1.000
    Si1498   Si       0.28079    0.33618    0.25844    1.000
    N1499    N        0.23977    0.46553    0.31220    1.000
    N1500    N        0.24645    0.38653    0.39663    1.000
    N1501    N        0.26633    0.27234    0.47907    1.000
    N1502    N        0.23952    0.33271    0.44760    1.000
    Si1503   Si       0.23772    0.37599    0.43757    1.000
    Si1504   Si       0.27640    0.31339    0.46016    1.000
    Si1505   Si       0.27333    0.41607    0.37878    1.000
    N1506    N        0.26046    0.45611    0.39015    1.000
    N1507    N        0.27306    0.39282    0.45931    1.000
    Si1508   Si       0.22836    0.48596    0.47480    1.000
    N1509    N        0.24102    0.49548    0.43310    1.000
    Si1510   Si       0.28057    0.48252    0.41975    1.000
    Si1511   Si       0.24143    0.37679    0.60251    1.000
    Si1512   Si       0.25933    0.30185    0.61347    1.000
    Si1513   Si       0.23039    0.25848    0.49742    1.000
    N1514    N        0.25875    0.39378    0.53161    1.000
    N1515    N        0.23673    0.46322    0.55192    1.000
    N1516    N        0.25845    0.41463    0.59131    1.000
    Si1517   Si       0.23650    0.45147    0.59483    1.000
    Si1518   Si       0.27540    0.48115    0.53944    1.000
    N1519    N        0.26190    0.49691    0.50012    1.000
    N1520    N        0.26371    0.34403    0.62291    1.000
    N1521    N        0.27128    0.30477    0.72227    1.000
    N1522    N        0.27230    0.28081    0.64864    1.000
    Si1523   Si       0.23830    0.35471    0.66021    1.000
    N1524    N        0.26326    0.36863    0.69260    1.000
    Si1525   Si       0.25350    0.34377    0.72803    1.000
    N1526    N        0.23665    0.50361    0.69501    1.000
    N1527    N        0.23706    0.44103    0.73380    1.000
    Si1528   Si       0.27662    0.45151    0.72609    1.000
    N1529    N        0.25392    0.47158    0.63191    1.000
    Si1530   Si       0.24987    0.30943    0.82499    1.000
    N1531    N        0.26255    0.36176    0.76579    1.000
    N1532    N        0.23799    0.30121    0.78288    1.000
    N1533    N        0.23431    0.34991    0.82580    1.000
    Si1534   Si       0.25818    0.26882    0.74683    1.000
    N1535    N        0.25538    0.46909    0.84855    1.000
    N1536    N        0.25685    0.42032    0.79969    1.000
    Si1537   Si       0.24558    0.42866    0.84153    1.000
    N1538    N        0.28094    0.41603    0.86395    1.000
    N1539    N        0.27481    0.30968    0.91737    1.000
    N1540    N        0.24340    0.36606    0.96771    1.000
    N1541    N        0.23828    0.36689    0.89787    1.000
    Si1542   Si       0.23930    0.28337    0.92518    1.000
    Si1543   Si       0.27928    0.35042    0.90335    1.000
    Si1544   Si       0.24396    0.45572    0.98501    1.000
    Si1545   Si       0.24309    0.49121    0.92347    1.000
    N1546    N        0.28233    0.44148    0.96965    1.000
    N1547    N        0.24853    0.61282    0.03361    1.000
    Si1548   Si       0.24083    0.55544    0.09334    1.000
    Si1549   Si       0.27832    0.61222    0.00013    1.000
    N1550    N        0.24104    0.59520    0.11637    1.000
    N1551    N        0.23756    0.51828    0.11925    1.000
    N1552    N        0.27711    0.56524    0.07373    1.000
    Si1553   Si       0.25739    0.72412    0.06402    1.000
    N1554    N        0.26370    0.71122    0.10547    1.000
    N1555    N        0.25367    0.68723    0.03567    1.000
    Si1556   Si       0.24912    0.64907    0.05824    1.000
    N1557    N        0.27811    0.64534    0.09079    1.000
    N1558    N        0.25490    0.61780    0.18856    1.000
    N1559    N        0.26958    0.54805    0.17212    1.000
    Si1560   Si       0.25238    0.58730    0.15917    1.000
    Si1561   Si       0.23363    0.52585    0.16236    1.000
    Si1562   Si       0.22516    0.64831    0.19192    1.000
    N1563    N        0.24680    0.67954    0.21212    1.000
    Si1564   Si       0.25080    0.73736    0.13882    1.000
    N1565    N        0.27806    0.73564    0.17068    1.000
    Si1566   Si       0.25246    0.55055    0.27722    1.000
    N1567    N        0.24045    0.54121    0.31841    1.000
    N1568    N        0.23799    0.59102    0.26386    1.000
    Si1569   Si       0.23425    0.54793    0.35989    1.000
    N1570    N        0.23625    0.61507    0.33537    1.000
    Si1571   Si       0.27394    0.60445    0.35434    1.000
    Si1572   Si       0.23826    0.62365    0.29320    1.000
    N1573    N        0.23002    0.52284    0.25351    1.000
    N1574    N        0.27288    0.64911    0.28159    1.000
    N1575    N        0.25112    0.71266    0.27777    1.000
    Si1576   Si       0.25756    0.74723    0.30141    1.000
    N1577    N        0.24342    0.68896    0.35907    1.000
    Si1578   Si       0.26544    0.68263    0.25320    1.000
    N1579    N        0.22770    0.75355    0.33303    1.000
    N1580    N        0.26947    0.56609    0.37431    1.000
    N1581    N        0.23402    0.55970    0.47393    1.000
    N1582    N        0.27812    0.63080    0.38774    1.000
    N1583    N        0.22743    0.74280    0.46942    1.000
    Si1584   Si       0.24928    0.72405    0.43766    1.000
    Si1585   Si       0.25045    0.65419    0.46222    1.000
    N1586    N        0.23182    0.74033    0.40255    1.000
    Si1587   Si       0.24587    0.65999    0.39239    1.000
    N1588    N        0.24901    0.68144    0.42897    1.000
    Si1589   Si       0.26295    0.54598    0.58087    1.000
    N1590    N        0.24292    0.61469    0.51219    1.000
    N1591    N        0.23785    0.54690    0.54542    1.000
    Si1592   Si       0.25621    0.54133    0.50654    1.000
    N1593    N        0.23777    0.53909    0.61390    1.000
    Si1594   Si       0.28347    0.60623    0.49783    1.000
    N1595    N        0.24280    0.65861    0.56083    1.000
    Si1596   Si       0.27785    0.66744    0.58484    1.000
    Si1597   Si       0.22877    0.68368    0.52757    1.000
    N1598    N        0.26327    0.69551    0.61486    1.000
    Si1599   Si       0.23632    0.75572    0.50958    1.000
    N1600    N        0.26074    0.67880    0.49586    1.000
    N1601    N        0.22369    0.72573    0.53934    1.000
    N1602    N        0.26109    0.62746    0.71723    1.000
    Si1603   Si       0.25482    0.59244    0.69018    1.000
    N1604    N        0.25468    0.60241    0.64710    1.000
    Si1605   Si       0.27631    0.51816    0.70299    1.000
    N1606    N        0.27712    0.56079    0.70946    1.000
    Si1607   Si       0.25380    0.71142    0.70304    1.000
    N1608    N        0.26057    0.75356    0.71386    1.000
    Si1609   Si       0.23002    0.64472    0.74219    1.000
    N1610    N        0.23469    0.68872    0.73482    1.000
    Si1611   Si       0.23626    0.61835    0.81234    1.000
    Si1612   Si       0.23255    0.54878    0.78664    1.000
    N1613    N        0.26989    0.60184    0.83123    1.000
    N1614    N        0.27283    0.53999    0.85102    1.000
    N1615    N        0.27456    0.55492    0.77724    1.000
    Si1616   Si       0.26213    0.57738    0.86722    1.000
    Si1617   Si       0.24255    0.51014    0.85355    1.000
    N1618    N        0.24946    0.64354    0.78145    1.000
    N1619    N        0.26278    0.70934    0.79870    1.000
    Si1620   Si       0.26801    0.74659    0.81933    1.000
    Si1621   Si       0.22586    0.70701    0.77319    1.000
    Si1622   Si       0.28327    0.67181    0.79009    1.000
    Si1623   Si       0.24703    0.59186    0.93711    1.000
    N1624    N        0.26574    0.58101    0.97463    1.000
    N1625    N        0.25866    0.51604    0.95300    1.000
    N1626    N        0.27784    0.58096    0.90751    1.000
    Si1627   Si       0.22381    0.73089    0.87686    1.000
    N1628    N        0.24199    0.63565    0.93563    1.000
    N1629    N        0.25545    0.70174    0.88048    1.000
    N1630    N        0.25998    0.71213    0.95191    1.000
    Si1631   Si       0.26880    0.66905    0.94974    1.000
    N1632    N        0.25677    0.83268    0.07835    1.000
    Si1633   Si       0.24115    0.79243    0.07738    1.000
    N1634    N        0.23543    0.77172    0.11271    1.000
    N1635    N        0.26372    0.76591    0.05115    1.000
    Si1636   Si       0.28115    0.85812    0.05051    1.000
    Si1637   Si       0.25622    0.98067    0.09944    1.000
    N1638    N        0.26201    0.89713    0.04477    1.000
    N1639    N        0.27753    0.96564    0.06449    1.000
    N1640    N        0.28004    0.95473    0.99922    1.000
    Si1641   Si       0.27448    0.87174    0.23980    1.000
    N1642    N        0.26997    0.85723    0.19846    1.000
    Si1643   Si       0.23991    0.88150    0.17490    1.000
    N1644    N        0.25549    0.87959    0.13211    1.000
    N1645    N        0.23878    0.92271    0.18873    1.000
    Si1646   Si       0.24142    0.95236    0.15657    1.000
    N1647    N        0.26581    0.91281    0.24755    1.000
    N1648    N        0.22997    0.99265    0.16238    1.000
    Si1649   Si       0.22807    0.92824    0.22992    1.000
    N1650    N        0.27711    0.95897    0.13054    1.000
    N1651    N        0.24970    0.78286    0.27894    1.000
    N1652    N        0.25001    0.84950    0.26748    1.000
    Si1653   Si       0.26362    0.82547    0.35782    1.000
    Si1654   Si       0.27319    0.81493    0.29197    1.000
    N1655    N        0.28009    0.86576    0.35841    1.000
    N1656    N        0.22804    0.82435    0.33252    1.000
    Si1657   Si       0.26471    0.90867    0.35571    1.000
    Si1658   Si       0.27487    0.97733    0.31038    1.000
    N1659    N        0.27027    0.00193    0.27359    1.000
    N1660    N        0.23114    0.98523    0.31535    1.000
    N1661    N        0.28290    0.93639    0.32466    1.000
    Si1662   Si       0.22496    0.99496    0.27360    1.000
    Si1663   Si       0.24984    0.83073    0.43441    1.000
    N1664    N        0.24567    0.81218    0.39428    1.000
    N1665    N        0.27802    0.80768    0.45807    1.000
    N1666    N        0.28248    0.86597    0.43541    1.000
    Si1667   Si       0.24982    0.89249    0.45433    1.000
    N1668    N        0.24841    0.99103    0.42694    1.000
    Si1669   Si       0.25193    0.95106    0.41101    1.000
    N1670    N        0.26782    0.90842    0.49231    1.000
    N1671    N        0.28276    0.92361    0.39439    1.000
    N1672    N        0.26728    0.80926    0.56413    1.000
    N1673    N        0.25627    0.85674    0.60625    1.000
    N1674    N        0.27792    0.76731    0.51305    1.000
    Si1675   Si       0.22834    0.87678    0.57882    1.000
    Si1676   Si       0.22609    0.80749    0.55562    1.000
    N1677    N        0.25800    0.89955    0.55679    1.000
    Si1678   Si       0.24505    0.92700    0.52446    1.000
    N1679    N        0.26001    0.96488    0.53877    1.000
    N1680    N        0.25879    0.00182    0.60700    1.000
    Si1681   Si       0.27863    0.97577    0.57653    1.000
    Si1682   Si       0.27974    0.99671    0.51741    1.000
    N1683    N        0.27676    0.87487    0.72796    1.000
    N1684    N        0.22821    0.77809    0.65491    1.000
    N1685    N        0.23537    0.81413    0.73709    1.000
    Si1686   Si       0.27510    0.82967    0.72093    1.000
    Si1687   Si       0.26745    0.77430    0.67495    1.000
    Si1688   Si       0.22680    0.86599    0.63776    1.000
    N1689    N        0.22922    0.99093    0.70404    1.000
    N1690    N        0.24076    0.88311    0.67444    1.000
    N1691    N        0.27826    0.93235    0.70416    1.000
    Si1692   Si       0.26210    0.91591    0.74106    1.000
    Si1693   Si       0.27907    0.89395    0.68763    1.000
    N1694    N        0.27814    0.98940    0.74309    1.000
    Si1695   Si       0.26840    0.97364    0.70143    1.000
    N1696    N        0.25930    0.82435    0.83982    1.000
    Si1697   Si       0.23586    0.85920    0.82476    1.000
    N1698    N        0.26757    0.77621    0.78525    1.000
    Si1699   Si       0.24052    0.79651    0.86822    1.000
    Si1700   Si       0.24422    0.77199    0.74918    1.000
    N1701    N        0.23653    0.75853    0.84874    1.000
    N1702    N        0.27331    0.88411    0.82551    1.000
    N1703    N        0.22375    0.94118    0.82540    1.000
    Si1704   Si       0.26529    0.92526    0.82234    1.000
    Si1705   Si       0.25495    0.97616    0.77819    1.000
    N1706    N        0.26759    0.93422    0.77969    1.000
    Si1707   Si       0.26974    0.99399    0.85406    1.000
    N1708    N        0.27138    0.00205    0.81297    1.000
    N1709    N        0.28025    0.94841    0.85792    1.000
    Si1710   Si       0.27686    0.80676    0.93613    1.000
    N1711    N        0.27396    0.79041    0.89731    1.000
    N1712    N        0.24609    0.82896    0.95594    1.000
    Si1713   Si       0.24855    0.85438    0.98949    1.000
    N1714    N        0.22918    0.99994    0.86849    1.000
    Si1715   Si       0.25719    0.93608    0.96681    1.000
    N1716    N        0.25689    0.89332    0.90174    1.000
    N1717    N        0.26096    0.89246    0.97139    1.000
    Si1718   Si       0.25962    0.93619    0.89465    1.000
    N1719    N        0.27363    0.95487    0.93021    1.000
    Si1720   Si       0.31108    0.09399    0.00957    1.000
    N1721    N        0.34261    0.07374    0.03401    1.000
    N1722    N        0.32709    0.13485    0.00411    1.000
    N1723    N        0.29417    0.15125    0.06677    1.000
    N1724    N        0.30216    0.21757    0.09566    1.000
    Si1725   Si       0.33114    0.15167    0.04368    1.000
    N1726    N        0.31561    0.25261    0.00464    1.000
    Si1727   Si       0.31451    0.09478    0.12748    1.000
    N1728    N        0.30406    0.06369    0.15813    1.000
    N1729    N        0.31270    0.03342    0.21324    1.000
    Si1730   Si       0.33226    0.03436    0.17391    1.000
    N1731    N        0.33804    0.09899    0.23586    1.000
    Si1732   Si       0.28190    0.01009    0.23055    1.000
    N1733    N        0.32021    0.21418    0.16407    1.000
    N1734    N        0.30891    0.15267    0.19893    1.000
    N1735    N        0.31436    0.23310    0.23976    1.000
    Si1736   Si       0.31743    0.17024    0.15948    1.000
    Si1737   Si       0.29510    0.23583    0.13511    1.000
    Si1738   Si       0.33072    0.23361    0.20003    1.000
    N1739    N        0.33246    0.13562    0.13384    1.000
    Si1740   Si       0.32833    0.02710    0.35474    1.000
    N1741    N        0.31966    0.04833    0.27421    1.000
    N1742    N        0.29767    0.12309    0.27900    1.000
    Si1743   Si       0.29846    0.08645    0.25367    1.000
    Si1744   Si       0.33998    0.13641    0.28370    1.000
    N1745    N        0.32189    0.23033    0.31667    1.000
    Si1746   Si       0.30261    0.19224    0.32539    1.000
    N1747    N        0.33706    0.16612    0.31575    1.000
    N1748    N        0.30200    0.18637    0.36926    1.000
    Si1749   Si       0.28797    0.25756    0.32453    1.000
    N1750    N        0.34334    0.01477    0.42939    1.000
    N1751    N        0.30417    0.04945    0.38053    1.000
    Si1752   Si       0.31648    0.04910    0.42232    1.000
    N1753    N        0.31322    0.10268    0.48600    1.000
    N1754    N        0.34102    0.13046    0.38062    1.000
    Si1755   Si       0.28778    0.13303    0.46479    1.000
    Si1756   Si       0.30257    0.25314    0.49295    1.000
    N1757    N        0.31404    0.21770    0.47074    1.000
    Si1758   Si       0.30921    0.20123    0.43113    1.000
    Si1759   Si       0.30391    0.14733    0.39071    1.000
    N1760    N        0.30266    0.15829    0.43327    1.000
    Si1761   Si       0.30654    0.11914    0.52489    1.000
    N1762    N        0.33631    0.10498    0.61069    1.000
    N1763    N        0.34168    0.13291    0.54722    1.000
    N1764    N        0.29617    0.22853    0.52931    1.000
    N1765    N        0.30545    0.17337    0.59847    1.000
    Si1766   Si       0.31064    0.19168    0.50763    1.000
    Si1767   Si       0.33547    0.14309    0.58903    1.000
    N1768    N        0.28465    0.15638    0.50461    1.000
    N1769    N        0.31656    0.04342    0.63497    1.000
    Si1770   Si       0.32244    0.08356    0.64771    1.000
    N1771    N        0.32137    0.04139    0.71545    1.000
    N1772    N        0.28618    0.10659    0.65783    1.000
    N1773    N        0.28426    0.11233    0.74185    1.000
    Si1774   Si       0.32255    0.19637    0.63248    1.000
    N1775    N        0.32901    0.21814    0.71893    1.000
    Si1776   Si       0.29277    0.21126    0.69708    1.000
    Si1777   Si       0.28506    0.14924    0.66382    1.000
    N1778    N        0.29407    0.21730    0.65497    1.000
    N1779    N        0.33079    0.16172    0.65782    1.000
    N1780    N        0.31385    0.11473    0.80883    1.000
    N1781    N        0.32312    0.05220    0.83609    1.000
    Si1782   Si       0.30368    0.03000    0.80293    1.000
    Si1783   Si       0.33554    0.01915    0.85967    1.000
    Si1784   Si       0.31449    0.09409    0.76867    1.000
    Si1785   Si       0.33934    0.09347    0.83787    1.000
    N1786    N        0.28722    0.06108    0.77862    1.000
    N1787    N        0.31060    0.16876    0.76443    1.000
    N1788    N        0.30881    0.20758    0.83238    1.000
    Si1789   Si       0.31195    0.16463    0.80862    1.000
    Si1790   Si       0.28752    0.24646    0.81953    1.000
    N1791    N        0.32877    0.11528    0.87489    1.000
    Si1792   Si       0.32216    0.09237    0.91511    1.000
    N1793    N        0.30857    0.07288    0.97007    1.000
    Si1794   Si       0.33882    0.04460    0.95958    1.000
    Si1795   Si       0.31691    0.15282    0.89681    1.000
    Si1796   Si       0.30813    0.22472    0.97070    1.000
    N1797    N        0.31800    0.13321    0.93528    1.000
    N1798    N        0.31418    0.24836    0.93536    1.000
    Si1799   Si       0.31566    0.15883    0.96940    1.000
    N1800    N        0.30601    0.29911    0.05219    1.000
    Si1801   Si       0.28765    0.29832    0.09411    1.000
    N1802    N        0.28931    0.33993    0.10436    1.000
    Si1803   Si       0.32759    0.35748    0.12008    1.000
    Si1804   Si       0.28715    0.28589    0.01603    1.000
    Si1805   Si       0.34067    0.32580    0.05023    1.000
    N1806    N        0.30849    0.27547    0.12639    1.000
    N1807    N        0.28720    0.38371    0.00847    1.000
    Si1808   Si       0.31989    0.49048    0.01440    1.000
    N1809    N        0.30331    0.45128    0.03104    1.000
    N1810    N        0.32862    0.46022    0.09053    1.000
    Si1811   Si       0.28939    0.44736    0.07269    1.000
    Si1812   Si       0.30415    0.42222    0.00152    1.000
    N1813    N        0.28426    0.40570    0.08554    1.000
    N1814    N        0.33274    0.27751    0.19446    1.000
    Si1815   Si       0.33954    0.28951    0.15287    1.000
    N1816    N        0.34313    0.33312    0.15208    1.000
    Si1817   Si       0.34383    0.30020    0.23058    1.000
    Si1818   Si       0.28748    0.45216    0.23770    1.000
    N1819    N        0.29035    0.49510    0.22638    1.000
    N1820    N        0.29650    0.41151    0.22277    1.000
    Si1821   Si       0.28524    0.41104    0.12903    1.000
    N1822    N        0.31127    0.49805    0.15056    1.000
    N1823    N        0.32528    0.39821    0.13532    1.000
    N1824    N        0.31993    0.35803    0.34707    1.000
    Si1825   Si       0.32432    0.31685    0.34702    1.000
    N1826    N        0.29391    0.37048    0.27941    1.000
    N1827    N        0.30659    0.30144    0.25439    1.000
    N1828    N        0.28809    0.30081    0.33150    1.000
    Si1829   Si       0.28566    0.26212    0.25138    1.000
    Si1830   Si       0.28508    0.37258    0.32305    1.000
    Si1831   Si       0.28046    0.45197    0.31551    1.000
    N1832    N        0.30548    0.44256    0.27711    1.000
    N1833    N        0.31327    0.47417    0.33063    1.000
    Si1834   Si       0.31787    0.40271    0.26063    1.000
    Si1835   Si       0.33123    0.49868    0.36182    1.000
    Si1836   Si       0.33636    0.46869    0.29299    1.000
    N1837    N        0.28061    0.41384    0.33564    1.000
    N1838    N        0.30967    0.31871    0.43683    1.000
    N1839    N        0.33829    0.29992    0.38265    1.000
    Si1840   Si       0.34045    0.38437    0.37521    1.000
    N1841    N        0.33291    0.28432    0.48987    1.000
    Si1842   Si       0.30525    0.41671    0.44244    1.000
    N1843    N        0.31108    0.40732    0.40034    1.000
    N1844    N        0.30704    0.46087    0.44670    1.000
    Si1845   Si       0.32837    0.29684    0.58344    1.000
    Si1846   Si       0.32551    0.32268    0.50727    1.000
    N1847    N        0.32592    0.32455    0.54977    1.000
    N1848    N        0.28619    0.28084    0.58231    1.000
    N1849    N        0.28629    0.33581    0.49618    1.000
    Si1850   Si       0.28518    0.37924    0.49953    1.000
    N1851    N        0.31735    0.38416    0.58723    1.000
    N1852    N        0.32173    0.38733    0.52284    1.000
    N1853    N        0.30251    0.45131    0.54851    1.000
    Si1854   Si       0.28953    0.41147    0.55652    1.000
    Si1855   Si       0.33885    0.41608    0.61228    1.000
    Si1856   Si       0.30542    0.35459    0.61901    1.000
    N1857    N        0.33053    0.31885    0.61991    1.000
    N1858    N        0.33050    0.28199    0.68595    1.000
    Si1859   Si       0.28498    0.28042    0.68873    1.000
    N1860    N        0.28827    0.49102    0.73424    1.000
    N1861    N        0.31660    0.38433    0.64932    1.000
    Si1862   Si       0.33964    0.42409    0.73747    1.000
    N1863    N        0.29876    0.42324    0.74878    1.000
    N1864    N        0.32583    0.45569    0.62768    1.000
    Si1865   Si       0.29760    0.39706    0.68869    1.000
    Si1866   Si       0.29334    0.46851    0.65226    1.000
    N1867    N        0.28943    0.43877    0.68528    1.000
    Si1868   Si       0.32175    0.31071    0.85044    1.000
    N1869    N        0.30210    0.34724    0.86743    1.000
    N1870    N        0.28802    0.28945    0.83238    1.000
    N1871    N        0.31551    0.38322    0.80832    1.000
    Si1872   Si       0.31199    0.38769    0.85094    1.000
    N1873    N        0.32796    0.46768    0.85081    1.000
    Si1874   Si       0.32414    0.50002    0.75813    1.000
    Si1875   Si       0.28556    0.39303    0.78032    1.000
    N1876    N        0.31301    0.50653    0.79918    1.000
    Si1877   Si       0.29169    0.45840    0.87175    1.000
    N1878    N        0.29234    0.31502    0.98350    1.000
    N1879    N        0.30382    0.37291    0.93314    1.000
    Si1880   Si       0.30305    0.29051    0.94634    1.000
    Si1881   Si       0.28522    0.35609    0.97263    1.000
    N1882    N        0.28102    0.47395    0.91001    1.000
    Si1883   Si       0.33731    0.40011    0.93976    1.000
    N1884    N        0.34085    0.44090    0.92481    1.000
    Si1885   Si       0.30754    0.46477    0.94238    1.000
    N1886    N        0.32770    0.49077    0.97029    1.000
    Si1887   Si       0.30852    0.56181    0.04328    1.000
    N1888    N        0.31599    0.60006    0.01704    1.000
    N1889    N        0.29644    0.52923    0.01455    1.000
    N1890    N        0.32982    0.59974    0.08733    1.000
    Si1891   Si       0.28387    0.60323    0.09879    1.000
    N1892    N        0.30442    0.71993    0.05330    1.000
    Si1893   Si       0.29495    0.68616    0.01523    1.000
    N1894    N        0.32853    0.66371    0.03451    1.000
    Si1895   Si       0.29168    0.67727    0.11626    1.000
    N1896    N        0.33438    0.68392    0.10583    1.000
    Si1897   Si       0.33673    0.69464    0.06353    1.000
    N1898    N        0.29654    0.60275    0.14188    1.000
    Si1899   Si       0.31152    0.53465    0.17043    1.000
    N1900    N        0.33033    0.54351    0.21063    1.000
    N1901    N        0.32674    0.62727    0.20649    1.000
    Si1902   Si       0.29540    0.63085    0.17545    1.000
    Si1903   Si       0.33952    0.71796    0.23767    1.000
    N1904    N        0.29184    0.67107    0.16068    1.000
    N1905    N        0.33713    0.73367    0.19752    1.000
    Si1906   Si       0.28297    0.69901    0.19504    1.000
    Si1907   Si       0.33428    0.65621    0.23704    1.000
    N1908    N        0.30435    0.69013    0.23444    1.000
    Si1909   Si       0.31925    0.56467    0.31261    1.000
    N1910    N        0.29979    0.60081    0.32037    1.000
    N1911    N        0.32716    0.54071    0.34760    1.000
    N1912    N        0.29540    0.54912    0.27626    1.000
    Si1913   Si       0.31595    0.52506    0.24656    1.000
    Si1914   Si       0.30867    0.63905    0.30321    1.000
    N1915    N        0.31178    0.66684    0.33580    1.000
    N1916    N        0.29150    0.73674    0.32821    1.000
    Si1917   Si       0.28540    0.69973    0.34953    1.000
    N1918    N        0.34419    0.63746    0.27422    1.000
    N1919    N        0.34053    0.75396    0.26241    1.000
    N1920    N        0.31890    0.57819    0.41818    1.000
    Si1921   Si       0.30484    0.62161    0.41904    1.000
    Si1922   Si       0.30845    0.55133    0.38475    1.000
    N1923    N        0.28509    0.62492    0.45808    1.000
    N1924    N        0.30568    0.50971    0.39684    1.000
    N1925    N        0.31006    0.70315    0.38749    1.000
    Si1926   Si       0.31818    0.73475    0.41421    1.000
    N1927    N        0.34074    0.64001    0.40135    1.000
    N1928    N        0.33704    0.67289    0.48834    1.000
    N1929    N        0.28886    0.74043    0.44476    1.000
    Si1930   Si       0.33645    0.67208    0.37145    1.000
    Si1931   Si       0.32151    0.60392    0.56300    1.000
    Si1932   Si       0.32934    0.53195    0.57238    1.000
    N1933    N        0.29213    0.57807    0.58837    1.000
    Si1934   Si       0.33719    0.56394    0.50774    1.000
    N1935    N        0.29152    0.51432    0.56401    1.000
    N1936    N        0.30534    0.62648    0.52810    1.000
    N1937    N        0.29343    0.56319    0.50524    1.000
    N1938    N        0.33606    0.52411    0.61590    1.000
    Si1939   Si       0.34031    0.65497    0.60916    1.000
    N1940    N        0.29999    0.63686    0.60680    1.000
    N1941    N        0.30505    0.68646    0.55559    1.000
    Si1942   Si       0.29968    0.66833    0.51421    1.000
    Si1943   Si       0.33329    0.72125    0.55802    1.000
    N1944    N        0.33087    0.69593    0.62107    1.000
    N1945    N        0.31273    0.75542    0.57755    1.000
    N1946    N        0.34174    0.73592    0.51502    1.000
    N1947    N        0.33488    0.53874    0.73972    1.000
    N1948    N        0.30369    0.50881    0.67032    1.000
    Si1949   Si       0.29284    0.59921    0.62643    1.000
    Si1950   Si       0.33160    0.54121    0.65522    1.000
    N1951    N        0.32269    0.58638    0.65369    1.000
    N1952    N        0.32475    0.60474    0.74292    1.000
    Si1953   Si       0.30146    0.56774    0.74557    1.000
    N1954    N        0.29461    0.75545    0.64492    1.000
    Si1955   Si       0.29447    0.71245    0.64083    1.000
    Si1956   Si       0.30162    0.64051    0.72554    1.000
    N1957    N        0.33184    0.65274    0.69693    1.000
    N1958    N        0.29243    0.70183    0.68434    1.000
    Si1959   Si       0.33682    0.69831    0.69284    1.000
    Si1960   Si       0.29711    0.54395    0.81276    1.000
    Si1961   Si       0.31361    0.60999    0.83267    1.000
    N1962    N        0.33020    0.57230    0.82064    1.000
    N1963    N        0.31129    0.65060    0.81526    1.000
    N1964    N        0.30773    0.67133    0.75489    1.000
    N1965    N        0.30404    0.74856    0.84490    1.000
    Si1966   Si       0.33589    0.73423    0.81794    1.000
    N1967    N        0.33156    0.68693    0.86553    1.000
    N1968    N        0.31937    0.61771    0.87449    1.000
    Si1969   Si       0.28823    0.54210    0.97153    1.000
    N1970    N        0.32596    0.55334    0.95048    1.000
    Si1971   Si       0.32438    0.58428    0.91258    1.000
    N1972    N        0.31992    0.71211    0.98729    1.000
    Si1973   Si       0.33318    0.64807    0.90110    1.000
    N1974    N        0.30069    0.66957    0.92100    1.000
    Si1975   Si       0.29687    0.73610    0.95720    1.000
    Si1976   Si       0.29771    0.69962    0.88962    1.000
    N1977    N        0.30988    0.73430    0.91309    1.000
    N1978    N        0.28322    0.65350    0.98800    1.000
    N1979    N        0.30808    0.86707    0.08582    1.000
    N1980    N        0.33208    0.78101    0.02249    1.000
    N1981    N        0.31403    0.77869    0.09019    1.000
    Si1982   Si       0.30631    0.76350    0.05217    1.000
    N1983    N        0.28546    0.83780    0.01288    1.000
    Si1984   Si       0.33171    0.80121    0.12099    1.000
    Si1985   Si       0.27981    0.84891    0.11377    1.000
    N1986    N        0.32622    0.92490    0.04254    1.000
    N1987    N        0.33313    0.99557    0.09501    1.000
    Si1988   Si       0.33341    0.90357    0.07943    1.000
    Si1989   Si       0.30299    0.00209    0.06453    1.000
    N1990    N        0.33670    0.92912    0.11452    1.000
    N1991    N        0.31729    0.00978    0.02537    1.000
    Si1992   Si       0.28440    0.93302    0.03755    1.000
    Si1993   Si       0.33258    0.79230    0.24271    1.000
    N1994    N        0.30814    0.79689    0.20710    1.000
    Si1995   Si       0.30245    0.83414    0.18263    1.000
    N1996    N        0.29816    0.82199    0.14095    1.000
    Si1997   Si       0.31211    0.76241    0.17863    1.000
    N1998    N        0.33979    0.85653    0.17775    1.000
    N1999    N        0.31757    0.87633    0.24048    1.000
    Si2000   Si       0.30303    0.92975    0.23752    1.000
    N2001    N        0.32876    0.99154    0.16240    1.000
    Si2002   Si       0.32991    0.96853    0.19853    1.000
    N2003    N        0.29255    0.97030    0.22050    1.000
    N2004    N        0.32578    0.92438    0.19975    1.000
    Si2005   Si       0.31860    0.96699    0.12681    1.000
    Si2006   Si       0.32195    0.86300    0.35038    1.000
    N2007    N        0.31321    0.81903    0.27232    1.000
    Si2008   Si       0.31345    0.76984    0.34692    1.000
    Si2009   Si       0.33596    0.85741    0.27397    1.000
    N2010    N        0.29151    0.80445    0.33340    1.000
    N2011    N        0.32538    0.87931    0.31084    1.000
    Si2012   Si       0.32334    0.92154    0.31216    1.000
    N2013    N        0.32695    0.93913    0.27164    1.000
    N2014    N        0.29953    0.00880    0.32776    1.000
    Si2015   Si       0.31093    0.83610    0.45823    1.000
    Si2016   Si       0.29716    0.77222    0.47390    1.000
    N2017    N        0.31593    0.77072    0.38871    1.000
    N2018    N        0.33926    0.78890    0.47324    1.000
    N2019    N        0.31675    0.85839    0.49675    1.000
    N2020    N        0.33561    0.88466    0.38453    1.000
    Si2021   Si       0.30638    0.89638    0.41476    1.000
    N2022    N        0.30475    0.99871    0.48104    1.000
    Si2023   Si       0.31071    0.90131    0.49182    1.000
    N2024    N        0.32429    0.91451    0.45353    1.000
    Si2025   Si       0.29829    0.78294    0.54779    1.000
    N2026    N        0.31531    0.86488    0.56541    1.000
    N2027    N        0.33546    0.80413    0.53608    1.000
    Si2028   Si       0.29203    0.83629    0.59037    1.000
    Si2029   Si       0.32239    0.77374    0.61646    1.000
    Si2030   Si       0.33999    0.84785    0.53270    1.000
    N2031    N        0.31568    0.81696    0.62017    1.000
    N2032    N        0.30553    0.94234    0.58714    1.000
    N2033    N        0.32680    0.91830    0.52947    1.000
    Si2034   Si       0.30146    0.90647    0.56258    1.000
    N2035    N        0.30328    0.00704    0.55370    1.000
    N2036    N        0.31021    0.80896    0.73723    1.000
    Si2037   Si       0.31486    0.83306    0.66055    1.000
    N2038    N        0.31369    0.87704    0.66512    1.000
    N2039    N        0.28098    0.81615    0.67998    1.000
    N2040    N        0.33930    0.97047    0.71792    1.000
    Si2041   Si       0.31717    0.00494    0.73651    1.000
    N2042    N        0.29524    0.98634    0.67039    1.000
    Si2043   Si       0.33378    0.97223    0.67565    1.000
    Si2044   Si       0.30595    0.79389    0.77754    1.000
    N2045    N        0.31900    0.82779    0.80183    1.000
    Si2046   Si       0.29681    0.84788    0.83350    1.000
    N2047    N        0.32851    0.85506    0.86120    1.000
    Si2048   Si       0.32502    0.95443    0.86329    1.000
    N2049    N        0.33484    0.01007    0.77588    1.000
    N2050    N        0.34112    0.98351    0.83489    1.000
    N2051    N        0.30408    0.84160    0.92840    1.000
    N2052    N        0.29329    0.77935    0.96440    1.000
    Si2053   Si       0.30828    0.76691    0.88484    1.000
    Si2054   Si       0.33318    0.83419    0.89786    1.000
    Si2055   Si       0.31042    0.80700    0.99394    1.000
    Si2056   Si       0.28331    0.88049    0.93386    1.000
    N2057    N        0.32069    0.90033    0.93972    1.000
    N2058    N        0.30060    0.00421    0.88187    1.000
    Si2059   Si       0.31686    0.98045    0.99094    1.000
    Si2060   Si       0.28999    0.99423    0.92280    1.000
    N2061    N        0.31707    0.00818    0.95420    1.000
    Si2062   Si       0.36377    0.08939    0.06816    1.000
    Si2063   Si       0.35533    0.03265    0.02616    1.000
    Si2064   Si       0.39121    0.06513    0.12004    1.000
    N2065    N        0.34969    0.07586    0.10869    1.000
    N2066    N        0.38427    0.01257    0.05063    1.000
    N2067    N        0.39082    0.02305    0.12536    1.000
    N2068    N        0.35835    0.13296    0.07049    1.000
    Si2069   Si       0.36853    0.14963    0.11036    1.000
    N2070    N        0.36552    0.19314    0.11046    1.000
    N2071    N        0.36130    0.24773    0.07259    1.000
    N2072    N        0.38168    0.24064    0.00641    1.000
    Si2073   Si       0.36928    0.20065    0.00392    1.000
    N2074    N        0.34153    0.19400    0.03963    1.000
    Si2075   Si       0.34044    0.21097    0.07882    1.000
    N2076    N        0.36792    0.05138    0.19388    1.000
    Si2077   Si       0.34872    0.05732    0.23193    1.000
    N2078    N        0.37239    0.15843    0.18335    1.000
    Si2079   Si       0.39601    0.19102    0.19733    1.000
    N2080    N        0.36910    0.22045    0.21448    1.000
    Si2081   Si       0.34852    0.13994    0.21524    1.000
    Si2082   Si       0.38603    0.22779    0.13099    1.000
    Si2083   Si       0.38533    0.08083    0.32695    1.000
    N2084    N        0.36939    0.11519    0.30576    1.000
    N2085    N        0.38013    0.04983    0.26113    1.000
    N2086    N        0.35540    0.05149    0.33093    1.000
    Si2087   Si       0.35489    0.03334    0.29258    1.000
    N2088    N        0.39283    0.10291    0.36341    1.000
    Si2089   Si       0.36154    0.13940    0.34377    1.000
    N2090    N        0.38525    0.21425    0.28839    1.000
    N2091    N        0.38415    0.17585    0.35489    1.000
    Si2092   Si       0.36153    0.20947    0.32600    1.000
    N2093    N        0.36742    0.23630    0.36005    1.000
    Si2094   Si       0.36244    0.23239    0.25543    1.000
    N2095    N        0.36138    0.15654    0.25206    1.000
    Si2096   Si       0.39717    0.17399    0.26971    1.000
    Si2097   Si       0.37107    0.10626    0.40297    1.000
    N2098    N        0.37868    0.11816    0.48566    1.000
    N2099    N        0.35907    0.04733    0.48625    1.000
    Si2100   Si       0.34936    0.08568    0.47103    1.000
    N2101    N        0.34656    0.08172    0.42837    1.000
    Si2102   Si       0.37030    0.20293    0.46499    1.000
    Si2103   Si       0.38194    0.20741    0.38946    1.000
    N2104    N        0.38848    0.24248    0.47231    1.000
    N2105    N        0.35481    0.20445    0.42313    1.000
    Si2106   Si       0.36849    0.08016    0.59275    1.000
    Si2107   Si       0.37897    0.04325    0.52338    1.000
    N2108    N        0.35765    0.05222    0.56160    1.000
    Si2109   Si       0.34503    0.00955    0.56153    1.000
    Si2110   Si       0.37072    0.14579    0.51913    1.000
    N2111    N        0.37169    0.16504    0.59642    1.000
    Si2112   Si       0.38207    0.25524    0.61372    1.000
    N2113    N        0.35272    0.18150    0.50328    1.000
    N2114    N        0.38302    0.05551    0.62537    1.000
    Si2115   Si       0.35402    0.02284    0.62957    1.000
    Si2116   Si       0.35392    0.07079    0.71460    1.000
    N2117    N        0.39023    0.04822    0.70729    1.000
    N2118    N        0.34638    0.09846    0.68224    1.000
    Si2119   Si       0.39893    0.00872    0.68876    1.000
    N2120    N        0.39757    0.14905    0.65576    1.000
    Si2121   Si       0.36170    0.13936    0.67857    1.000
    Si2122   Si       0.38836    0.18557    0.63050    1.000
    Si2123   Si       0.34552    0.18425    0.74138    1.000
    N2124    N        0.35832    0.21955    0.62674    1.000
    Si2125   Si       0.35041    0.25604    0.71502    1.000
    N2126    N        0.39170    0.24097    0.70725    1.000
    N2127    N        0.36765    0.15735    0.71669    1.000
    N2128    N        0.38192    0.09096    0.82460    1.000
    Si2129   Si       0.38603    0.09549    0.78227    1.000
    N2130    N        0.35306    0.08822    0.75368    1.000
    N2131    N        0.37638    0.02742    0.86941    1.000
    N2132    N        0.39679    0.13595    0.77422    1.000
    N2133    N        0.38094    0.22592    0.83928    1.000
    N2134    N        0.38066    0.19877    0.76670    1.000
    Si2135   Si       0.39162    0.17152    0.79916    1.000
    N2136    N        0.35368    0.16862    0.82047    1.000
    Si2137   Si       0.34777    0.20166    0.85062    1.000
    N2138    N        0.37070    0.03051    0.98627    1.000
    Si2139   Si       0.39185    0.04983    0.90383    1.000
    N2140    N        0.35392    0.06450    0.92264    1.000
    N2141    N        0.34257    0.19495    0.96560    1.000
    N2142    N        0.37627    0.23962    0.91936    1.000
    Si2143   Si       0.36618    0.19885    0.92669    1.000
    N2144    N        0.34331    0.18736    0.89101    1.000
    N2145    N        0.35945    0.34854    0.01489    1.000
    N2146    N        0.37561    0.29689    0.04341    1.000
    N2147    N        0.35030    0.35096    0.08409    1.000
    Si2148   Si       0.38315    0.37979    0.07597    1.000
    Si2149   Si       0.39830    0.32854    0.02034    1.000
    Si2150   Si       0.39783    0.27341    0.07647    1.000
    Si2151   Si       0.35206    0.26190    0.02839    1.000
    Si2152   Si       0.36806    0.39168    0.00838    1.000
    N2153    N        0.36383    0.40977    0.04953    1.000
    N2154    N        0.36008    0.48578    0.02999    1.000
    Si2155   Si       0.36291    0.45106    0.05858    1.000
    N2156    N        0.39348    0.39336    0.11599    1.000
    N2157    N        0.37566    0.50861    0.11506    1.000
    Si2158   Si       0.37138    0.34938    0.18147    1.000
    N2159    N        0.37665    0.27096    0.14082    1.000
    N2160    N        0.36525    0.33746    0.22220    1.000
    N2161    N        0.36578    0.45376    0.15193    1.000
    Si2162   Si       0.34175    0.48086    0.12587    1.000
    Si2163   Si       0.36593    0.41239    0.14319    1.000
    Si2164   Si       0.39674    0.47228    0.17597    1.000
    N2165    N        0.37686    0.39339    0.18175    1.000
    Si2166   Si       0.38677    0.29758    0.29111    1.000
    N2167    N        0.35897    0.30050    0.32416    1.000
    N2168    N        0.36929    0.27556    0.25636    1.000
    Si2169   Si       0.36892    0.27759    0.36190    1.000
    Si2170   Si       0.38714    0.36243    0.25028    1.000
    N2171    N        0.35994    0.39285    0.26939    1.000
    N2172    N        0.37509    0.45138    0.30208    1.000
    Si2173   Si       0.37769    0.40764    0.30921    1.000
    N2174    N        0.36400    0.40942    0.34985    1.000
    Si2175   Si       0.37435    0.28339    0.48021    1.000
    N2176    N        0.38347    0.30347    0.44132    1.000
    N2177    N        0.36191    0.36039    0.40596    1.000
    Si2178   Si       0.34849    0.32184    0.41960    1.000
    Si2179   Si       0.39747    0.37860    0.42139    1.000
    N2180    N        0.39849    0.38232    0.46475    1.000
    N2181    N        0.37763    0.47817    0.44502    1.000
    Si2182   Si       0.38952    0.43959    0.37132    1.000
    N2183    N        0.34189    0.41446    0.46671    1.000
    N2184    N        0.39885    0.41960    0.40913    1.000
    Si2185   Si       0.38874    0.50318    0.40752    1.000
    Si2186   Si       0.34489    0.45693    0.46550    1.000
    N2187    N        0.36645    0.47760    0.37739    1.000
    Si2188   Si       0.37783    0.50668    0.48142    1.000
    Si2189   Si       0.36158    0.39020    0.49394    1.000
    Si2190   Si       0.39012    0.33060    0.53216    1.000
    N2191    N        0.38068    0.35040    0.56859    1.000
    N2192    N        0.38919    0.28920    0.52095    1.000
    N2193    N        0.36106    0.26739    0.57848    1.000
    N2194    N        0.36286    0.34523    0.50152    1.000
    Si2195   Si       0.34122    0.36593    0.55675    1.000
    Si2196   Si       0.39512    0.26202    0.55312    1.000
    N2197    N        0.36305    0.43521    0.57618    1.000
    Si2198   Si       0.35375    0.48393    0.60844    1.000
    N2199    N        0.35906    0.49771    0.56609    1.000
    N2200    N        0.35431    0.47495    0.50272    1.000
    N2201    N        0.39154    0.40515    0.52301    1.000
    Si2202   Si       0.34389    0.46081    0.54524    1.000
    Si2203   Si       0.40179    0.42587    0.56019    1.000
    Si2204   Si       0.37529    0.37463    0.73230    1.000
    N2205    N        0.38629    0.27720    0.64989    1.000
    Si2206   Si       0.35282    0.30530    0.65706    1.000
    N2207    N        0.37224    0.34218    0.67344    1.000
    Si2208   Si       0.35547    0.38069    0.66583    1.000
    Si2209   Si       0.39648    0.44743    0.65637    1.000
    N2210    N        0.34251    0.39250    0.70648    1.000
    N2211    N        0.37623    0.40950    0.64066    1.000
    N2212    N        0.34796    0.46647    0.74209    1.000
    N2213    N        0.39538    0.46841    0.69228    1.000
    N2214    N        0.39304    0.48129    0.62871    1.000
    Si2215   Si       0.39039    0.47624    0.73509    1.000
    Si2216   Si       0.36319    0.30480    0.78268    1.000
    N2217    N        0.36745    0.34394    0.76140    1.000
    Si2218   Si       0.35572    0.36716    0.79782    1.000
    Si2219   Si       0.38240    0.26901    0.84324    1.000
    N2220    N        0.35484    0.27693    0.75273    1.000
    Si2221   Si       0.38680    0.37820    0.86061    1.000
    N2222    N        0.39474    0.28321    0.80462    1.000
    N2223    N        0.34430    0.32655    0.81434    1.000
    N2224    N        0.34414    0.27494    0.86644    1.000
    N2225    N        0.39144    0.38202    0.81763    1.000
    N2226    N        0.36773    0.40690    0.76342    1.000
    N2227    N        0.37895    0.45341    0.81657    1.000
    Si2228   Si       0.34871    0.49478    0.82086    1.000
    Si2229   Si       0.36114    0.44189    0.85588    1.000
    N2230    N        0.34984    0.40284    0.86596    1.000
    Si2231   Si       0.40025    0.41868    0.79123    1.000
    N2232    N        0.34268    0.30424    0.92964    1.000
    Si2233   Si       0.34475    0.26479    0.90886    1.000
    Si2234   Si       0.37045    0.33692    0.92120    1.000
    N2235    N        0.37509    0.33995    0.87816    1.000
    N2236    N        0.37443    0.37649    0.93590    1.000
    N2237    N        0.34061    0.41090    0.98205    1.000
    N2238    N        0.39412    0.45664    0.88207    1.000
    N2239    N        0.37403    0.50537    0.92275    1.000
    Si2240   Si       0.37871    0.46026    0.92297    1.000
    Si2241   Si       0.36778    0.58638    0.06938    1.000
    Si2242   Si       0.37842    0.52561    0.02724    1.000
    N2243    N        0.38353    0.61097    0.04006    1.000
    N2244    N        0.35183    0.55246    0.04830    1.000
    N2245    N        0.38365    0.58003    0.10989    1.000
    Si2246   Si       0.34856    0.62931    0.01584    1.000
    N2247    N        0.37094    0.71036    0.04203    1.000
    Si2248   Si       0.35933    0.69489    0.99952    1.000
    Si2249   Si       0.38337    0.54443    0.14222    1.000
    Si2250   Si       0.36647    0.61745    0.18751    1.000
    Si2251   Si       0.37332    0.54309    0.20957    1.000
    N2252    N        0.38486    0.57812    0.18719    1.000
    N2253    N        0.35410    0.63146    0.14941    1.000
    N2254    N        0.38054    0.51359    0.18086    1.000
    Si2255   Si       0.33921    0.59540    0.12897    1.000
    N2256    N        0.39892    0.54272    0.24767    1.000
    N2257    N        0.33948    0.55542    0.14470    1.000
    N2258    N        0.39987    0.63827    0.20409    1.000
    N2259    N        0.36686    0.68566    0.23287    1.000
    Si2260   Si       0.39329    0.68128    0.19810    1.000
    Si2261   Si       0.36769    0.66975    0.13186    1.000
    N2262    N        0.37977    0.69885    0.16068    1.000
    Si2263   Si       0.36901    0.74092    0.16914    1.000
    N2264    N        0.35993    0.57270    0.29654    1.000
    Si2265   Si       0.37604    0.61372    0.28979    1.000
    Si2266   Si       0.37598    0.53501    0.28375    1.000
    N2267    N        0.39748    0.51936    0.31804    1.000
    N2268    N        0.34587    0.50515    0.27294    1.000
    Si2269   Si       0.38447    0.73235    0.34857    1.000
    N2270    N        0.37317    0.69120    0.35738    1.000
    N2271    N        0.40017    0.63615    0.32011    1.000
    Si2272   Si       0.37849    0.75469    0.28365    1.000
    N2273    N        0.34946    0.60089    0.48344    1.000
    N2274    N        0.34868    0.53851    0.47538    1.000
    Si2275   Si       0.35244    0.57343    0.44803    1.000
    N2276    N        0.38661    0.58907    0.42770    1.000
    Si2277   Si       0.37940    0.63042    0.41697    1.000
    Si2278   Si       0.39311    0.73501    0.42174    1.000
    N2279    N        0.39251    0.65297    0.45342    1.000
    N2280    N        0.39720    0.71130    0.48917    1.000
    Si2281   Si       0.35363    0.71113    0.47939    1.000
    Si2282   Si       0.36699    0.64100    0.48795    1.000
    N2283    N        0.35372    0.72476    0.43763    1.000
    Si2284   Si       0.39480    0.62833    0.55866    1.000
    N2285    N        0.35476    0.62908    0.57553    1.000
    N2286    N        0.34204    0.56721    0.54999    1.000
    N2287    N        0.37248    0.71586    0.57369    1.000
    N2288    N        0.39369    0.64681    0.52100    1.000
    N2289    N        0.37542    0.60086    0.69407    1.000
    N2290    N        0.37419    0.53779    0.66835    1.000
    Si2291   Si       0.36676    0.60868    0.73626    1.000
    Si2292   Si       0.34455    0.61951    0.67107    1.000
    Si2293   Si       0.39973    0.57519    0.66811    1.000
    Si2294   Si       0.39021    0.74911    0.69302    1.000
    N2295    N        0.35686    0.71110    0.73281    1.000
    N2296    N        0.36689    0.64268    0.64070    1.000
    N2297    N        0.36627    0.71956    0.66960    1.000
    Si2298   Si       0.36989    0.72019    0.62344    1.000
    Si2299   Si       0.36545    0.57386    0.84396    1.000
    N2300    N        0.38921    0.58111    0.76075    1.000
    N2301    N        0.36787    0.62015    0.83577    1.000
    Si2302   Si       0.37712    0.53982    0.75384    1.000
    N2303    N        0.36936    0.51885    0.84848    1.000
    N2304    N        0.37562    0.51103    0.78533    1.000
    N2305    N        0.39154    0.67763    0.84258    1.000
    N2306    N        0.37103    0.73948    0.84052    1.000
    Si2307   Si       0.36478    0.74770    0.75441    1.000
    N2308    N        0.37903    0.64569    0.75352    1.000
    Si2309   Si       0.34957    0.67764    0.76032    1.000
    Si2310   Si       0.35076    0.66255    0.83038    1.000
    N2311    N        0.35357    0.69781    0.79760    1.000
    Si2312   Si       0.37092    0.70537    0.87386    1.000
    Si2313   Si       0.35563    0.52282    0.96028    1.000
    N2314    N        0.38863    0.53125    0.98676    1.000
    N2315    N        0.35945    0.56661    0.88777    1.000
    Si2316   Si       0.38038    0.52743    0.88731    1.000
    N2317    N        0.34159    0.61764    0.93509    1.000
    Si2318   Si       0.37631    0.64146    0.94673    1.000
    N2319    N        0.36841    0.65440    0.98658    1.000
    N2320    N        0.38750    0.73483    0.90070    1.000
    N2321    N        0.37064    0.67247    0.91338    1.000
    Si2322   Si       0.39484    0.70500    0.93220    1.000
    N2323    N        0.38643    0.71347    0.97325    1.000
    Si2324   Si       0.37565    0.79156    0.03215    1.000
    Si2325   Si       0.38664    0.84688    0.08411    1.000
    N2326    N        0.38077    0.83395    0.04209    1.000
    N2327    N        0.35937    0.83163    0.11428    1.000
    Si2328   Si       0.39375    0.86147    0.00974    1.000
    N2329    N        0.39445    0.77905    0.99564    1.000
    N2330    N        0.38997    0.94478    0.03560    1.000
    N2331    N        0.37451    0.88985    0.07787    1.000
    Si2332   Si       0.35808    0.92644    0.01156    1.000
    Si2333   Si       0.37456    0.99960    0.09050    1.000
    N2334    N        0.39652    0.96621    0.10506    1.000
    Si2335   Si       0.37746    0.93181    0.12584    1.000
    Si2336   Si       0.37194    0.85533    0.14905    1.000
    N2337    N        0.37015    0.81028    0.22892    1.000
    N2338    N        0.34447    0.77013    0.14786    1.000
    N2339    N        0.38821    0.89411    0.14448    1.000
    N2340    N        0.38449    0.89951    0.21551    1.000
    N2341    N        0.36377    0.97569    0.22625    1.000
    Si2342   Si       0.34335    0.88682    0.20810    1.000
    N2343    N        0.39100    0.95305    0.16468    1.000
    Si2344   Si       0.37921    0.80039    0.33132    1.000
    N2345    N        0.37944    0.86355    0.27027    1.000
    N2346    N        0.35577    0.83123    0.35351    1.000
    N2347    N        0.38843    0.79603    0.29012    1.000
    N2348    N        0.35621    0.76203    0.33415    1.000
    N2349    N        0.36674    0.99157    0.29730    1.000
    Si2350   Si       0.37215    0.97169    0.33735    1.000
    Si2351   Si       0.36486    0.96049    0.26797    1.000
    N2352    N        0.35369    0.93316    0.33913    1.000
    N2353    N        0.35684    0.99789    0.36655    1.000
    Si2354   Si       0.39899    0.89915    0.25712    1.000
    N2355    N        0.39788    0.93512    0.28122    1.000
    N2356    N        0.34662    0.83904    0.43291    1.000
    N2357    N        0.40262    0.76896    0.44806    1.000
    Si2358   Si       0.36616    0.84765    0.39456    1.000
    Si2359   Si       0.37514    0.80638    0.44860    1.000
    N2360    N        0.39139    0.83189    0.48213    1.000
    Si2361   Si       0.39523    0.87344    0.49026    1.000
    N2362    N        0.39754    0.82021    0.40790    1.000
    N2363    N        0.39694    0.87939    0.38672    1.000
    N2364    N        0.39428    0.90596    0.45906    1.000
    Si2365   Si       0.37081    0.98897    0.40623    1.000
    Si2366   Si       0.36356    0.93272    0.44701    1.000
    N2367    N        0.36677    0.96965    0.47249    1.000
    N2368    N        0.36661    0.94482    0.40621    1.000
    Si2369   Si       0.36957    0.91386    0.37593    1.000
    Si2370   Si       0.34583    0.00838    0.47337    1.000
    Si2371   Si       0.35783    0.77530    0.51185    1.000
    N2372    N        0.37580    0.87395    0.52889    1.000
    N2373    N        0.40284    0.77586    0.51442    1.000
    N2374    N        0.37173    0.92241    0.58338    1.000
    Si2375   Si       0.36974    0.91656    0.54026    1.000
    N2376    N        0.37669    0.99932    0.52955    1.000
    N2377    N        0.35022    0.98948    0.60002    1.000
    Si2378   Si       0.39791    0.97400    0.50138    1.000
    Si2379   Si       0.34338    0.94521    0.60647    1.000
    N2380    N        0.36914    0.84179    0.74695    1.000
    N2381    N        0.36458    0.76540    0.62167    1.000
    Si2382   Si       0.34933    0.81329    0.72073    1.000
    Si2383   Si       0.38883    0.87360    0.72742    1.000
    N2384    N        0.35445    0.82640    0.67860    1.000
    N2385    N        0.36806    0.77413    0.72028    1.000
    Si2386   Si       0.38947    0.84394    0.66045    1.000
    N2387    N        0.37980    0.88170    0.64034    1.000
    Si2388   Si       0.35013    0.90013    0.66819    1.000
    N2389    N        0.34162    0.93801    0.64981    1.000
    N2390    N        0.36722    0.90626    0.70785    1.000
    N2391    N        0.36450    0.00027    0.66475    1.000
    Si2392   Si       0.37335    0.94670    0.73076    1.000
    Si2393   Si       0.35937    0.83917    0.79010    1.000
    N2394    N        0.38908    0.81368    0.80886    1.000
    Si2395   Si       0.39687    0.77069    0.82025    1.000
    N2396    N        0.33517    0.76098    0.78263    1.000
    N2397    N        0.40224    0.86662    0.86570    1.000
    Si2398   Si       0.36288    0.87981    0.84951    1.000
    N2399    N        0.36842    0.87923    0.80693    1.000
    N2400    N        0.37397    0.94458    0.77577    1.000
    Si2401   Si       0.36052    0.98211    0.79588    1.000
    N2402    N        0.35488    0.92135    0.85741    1.000
    Si2403   Si       0.39639    0.90989    0.79184    1.000
    N2404    N        0.39851    0.00354    0.80388    1.000
    N2405    N        0.34724    0.82784    0.97975    1.000
    Si2406   Si       0.38451    0.80733    0.96449    1.000
    Si2407   Si       0.38595    0.77888    0.89129    1.000
    N2408    N        0.36755    0.84995    0.92202    1.000
    Si2409   Si       0.34294    0.86432    0.95894    1.000
    N2410    N        0.34490    0.79318    0.88961    1.000
    N2411    N        0.34449    0.96100    0.90373    1.000
    Si2412   Si       0.37900    0.94282    0.88619    1.000
    Si2413   Si       0.34884    0.93254    0.93811    1.000
    N2414    N        0.34499    0.95169    0.97861    1.000
    N2415    N        0.38445    0.91470    0.92097    1.000
    N2416    N        0.36436    0.88799    0.99273    1.000
    Si2417   Si       0.44451    0.08778    0.07458    1.000
    N2418    N        0.44846    0.12491    0.05338    1.000
    N2419    N        0.40426    0.07726    0.08033    1.000
    N2420    N        0.41349    0.14686    0.11349    1.000
    Si2421   Si       0.44142    0.15692    0.08152    1.000
    N2422    N        0.42155    0.23786    0.10643    1.000
    N2423    N        0.43955    0.19411    0.05627    1.000
    Si2424   Si       0.43724    0.18905    0.01452    1.000
    Si2425   Si       0.45020    0.23131    0.07298    1.000
    N2426    N        0.39965    0.17105    0.00129    1.000
    Si2427   Si       0.45285    0.00854    0.21540    1.000
    N2428    N        0.40789    0.08527    0.15387    1.000
    Si2429   Si       0.43545    0.11652    0.14295    1.000
    N2430    N        0.44666    0.05650    0.20181    1.000
    Si2431   Si       0.40991    0.05097    0.18004    1.000
    N2432    N        0.41853    0.00762    0.18376    1.000
    N2433    N        0.41360    0.21304    0.16365    1.000
    N2434    N        0.42093    0.18451    0.23282    1.000
    Si2435   Si       0.46058    0.19558    0.24448    1.000
    Si2436   Si       0.44556    0.23838    0.14609    1.000
    N2437    N        0.42291    0.06434    0.31300    1.000
    Si2438   Si       0.42159    0.05657    0.26831    1.000
    N2439    N        0.44114    0.09393    0.25681    1.000
    N2440    N        0.44702    0.02340    0.25744    1.000
    Si2441   Si       0.45386    0.12809    0.28237    1.000
    Si2442   Si       0.46292    0.07047    0.33012    1.000
    N2443    N        0.42287    0.15450    0.29883    1.000
    Si2444   Si       0.42548    0.16814    0.33912    1.000
    N2445    N        0.43666    0.21053    0.33375    1.000
    Si2446   Si       0.42531    0.23249    0.29965    1.000
    N2447    N        0.44795    0.15129    0.37085    1.000
    N2448    N        0.45574    0.23203    0.27009    1.000
    Si2449   Si       0.45056    0.22948    0.37024    1.000
    Si2450   Si       0.44189    0.00752    0.44146    1.000
    N2451    N        0.40871    0.11720    0.42221    1.000
    N2452    N        0.44804    0.05012    0.43607    1.000
    Si2453   Si       0.43095    0.11230    0.38463    1.000
    N2454    N        0.44613    0.11486    0.47952    1.000
    Si2455   Si       0.41127    0.13242    0.46127    1.000
    N2456    N        0.45721    0.08086    0.37374    1.000
    Si2457   Si       0.42807    0.24293    0.49238    1.000
    N2458    N        0.40571    0.17635    0.45724    1.000
    N2459    N        0.45560    0.22355    0.46570    1.000
    N2460    N        0.42182    0.21714    0.40224    1.000
    Si2461   Si       0.43938    0.19613    0.43731    1.000
    Si2462   Si       0.43472    0.08080    0.56271    1.000
    N2463    N        0.41910    0.05393    0.52979    1.000
    Si2464   Si       0.44862    0.02678    0.51358    1.000
    N2465    N        0.44594    0.05352    0.59484    1.000
    N2466    N        0.40230    0.10477    0.57924    1.000
    N2467    N        0.43571    0.17978    0.58946    1.000
    N2468    N        0.42002    0.22916    0.53326    1.000
    Si2469   Si       0.43515    0.19089    0.54814    1.000
    Si2470   Si       0.40578    0.14674    0.57747    1.000
    N2471    N        0.40912    0.15785    0.53636    1.000
    N2472    N        0.42973    0.01869    0.65939    1.000
    Si2473   Si       0.42462    0.05438    0.63447    1.000
    N2474    N        0.44536    0.08556    0.65587    1.000
    N2475    N        0.42396    0.11692    0.71380    1.000
    Si2476   Si       0.42202    0.07469    0.72393    1.000
    Si2477   Si       0.43188    0.12674    0.67137    1.000
    Si2478   Si       0.40751    0.22014    0.74290    1.000
    N2479    N        0.45444    0.25822    0.68006    1.000
    Si2480   Si       0.41315    0.24894    0.67045    1.000
    Si2481   Si       0.40736    0.15132    0.73496    1.000
    N2482    N        0.43503    0.18526    0.73532    1.000
    N2483    N        0.41750    0.21367    0.64437    1.000
    Si2484   Si       0.45270    0.18970    0.62852    1.000
    Si2485   Si       0.43137    0.03300    0.78920    1.000
    Si2486   Si       0.41992    0.07993    0.84143    1.000
    N2487    N        0.41493    0.06822    0.76891    1.000
    N2488    N        0.43850    0.03694    0.83506    1.000
    N2489    N        0.45361    0.10504    0.82580    1.000
    Si2490   Si       0.40592    0.00498    0.84625    1.000
    N2491    N        0.44338    0.24849    0.75311    1.000
    N2492    N        0.44553    0.24041    0.81921    1.000
    N2493    N        0.42519    0.17210    0.82633    1.000
    Si2494   Si       0.42358    0.21263    0.84205    1.000
    Si2495   Si       0.45657    0.14477    0.84244    1.000
    N2496    N        0.41380    0.02013    0.92931    1.000
    N2497    N        0.42591    0.11663    0.94667    1.000
    Si2498   Si       0.44516    0.10511    0.90739    1.000
    N2499    N        0.41551    0.08200    0.88528    1.000
    Si2500   Si       0.41313    0.02510    0.97229    1.000
    N2501    N        0.44021    0.05436    0.98693    1.000
    Si2502   Si       0.45576    0.09155    0.96762    1.000
    Si2503   Si       0.41595    0.24775    0.90275    1.000
    Si2504   Si       0.41929    0.15273    0.96735    1.000
    N2505    N        0.43190    0.21213    0.88362    1.000
    N2506    N        0.44795    0.22522    0.99223    1.000
    N2507    N        0.40411    0.17759    0.93529    1.000
    Si2508   Si       0.43981    0.17709    0.90863    1.000
    N2509    N        0.44989    0.14332    0.88659    1.000
    Si2510   Si       0.43958    0.33494    0.07973    1.000
    N2511    N        0.41772    0.35960    0.04826    1.000
    N2512    N        0.41623    0.30546    0.10010    1.000
    N2513    N        0.45429    0.36105    0.11079    1.000
    N2514    N        0.43553    0.26467    0.04763    1.000
    Si2515   Si       0.42150    0.25885    0.00549    1.000
    Si2516   Si       0.43734    0.39095    0.02203    1.000
    Si2517   Si       0.44722    0.45214    0.07307    1.000
    N2518    N        0.44981    0.49226    0.09368    1.000
    Si2519   Si       0.40578    0.49696    0.08782    1.000
    N2520    N        0.40358    0.45666    0.07408    1.000
    N2521    N        0.45236    0.43017    0.03525    1.000
    N2522    N        0.40893    0.33822    0.15858    1.000
    Si2523   Si       0.41021    0.29861    0.14129    1.000
    N2524    N        0.44458    0.27778    0.15960    1.000
    Si2525   Si       0.42367    0.37372    0.13893    1.000
    N2526    N        0.42188    0.38171    0.23346    1.000
    N2527    N        0.44403    0.40135    0.16906    1.000
    Si2528   Si       0.44128    0.46610    0.23681    1.000
    Si2529   Si       0.41383    0.40673    0.20046    1.000
    N2530    N        0.41086    0.44884    0.20902    1.000
    N2531    N        0.43293    0.47191    0.15136    1.000
    Si2532   Si       0.45140    0.50991    0.13476    1.000
    Si2533   Si       0.43262    0.35905    0.30542    1.000
    Si2534   Si       0.43395    0.29375    0.34519    1.000
    N2535    N        0.44006    0.33772    0.34126    1.000
    N2536    N        0.41753    0.27446    0.30938    1.000
    N2537    N        0.40246    0.33812    0.28298    1.000
    N2538    N        0.42469    0.45448    0.34836    1.000
    N2539    N        0.43404    0.48173    0.27790    1.000
    N2540    N        0.41835    0.39729    0.31734    1.000
    Si2541   Si       0.44847    0.41821    0.33804    1.000
    Si2542   Si       0.40760    0.47728    0.31265    1.000
    N2543    N        0.42617    0.34864    0.41083    1.000
    Si2544   Si       0.42350    0.30531    0.41767    1.000
    N2545    N        0.40741    0.29133    0.37860    1.000
    N2546    N        0.44877    0.28111    0.48899    1.000
    Si2547   Si       0.45463    0.35717    0.38007    1.000
    N2548    N        0.44599    0.45765    0.45929    1.000
    N2549    N        0.42865    0.48220    0.40753    1.000
    Si2550   Si       0.45425    0.48093    0.37055    1.000
    Si2551   Si       0.44987    0.49993    0.44170    1.000
    Si2552   Si       0.41111    0.45163    0.43575    1.000
    Si2553   Si       0.44073    0.36534    0.56635    1.000
    N2554    N        0.42975    0.34839    0.52566    1.000
    N2555    N        0.42125    0.26395    0.58835    1.000
    Si2556   Si       0.45573    0.29226    0.58893    1.000
    N2557    N        0.45059    0.33533    0.59793    1.000
    Si2558   Si       0.45796    0.31529    0.51220    1.000
    Si2559   Si       0.42321    0.38388    0.49908    1.000
    N2560    N        0.41857    0.46529    0.55395    1.000
    N2561    N        0.42375    0.40011    0.58557    1.000
    Si2562   Si       0.43248    0.50157    0.61847    1.000
    Si2563   Si       0.40214    0.50435    0.55410    1.000
    N2564    N        0.42855    0.31143    0.70751    1.000
    Si2565   Si       0.45346    0.27740    0.71931    1.000
    N2566    N        0.41684    0.37326    0.71906    1.000
    Si2567   Si       0.41542    0.34432    0.68556    1.000
    N2568    N        0.43425    0.36290    0.65233    1.000
    Si2569   Si       0.45366    0.38335    0.73913    1.000
    N2570    N        0.43640    0.43263    0.64838    1.000
    Si2571   Si       0.41817    0.39711    0.62967    1.000
    Si2572   Si       0.43599    0.27101    0.79121    1.000
    N2573    N        0.44585    0.34113    0.86717    1.000
    N2574    N        0.41228    0.27808    0.87441    1.000
    N2575    N        0.43936    0.40483    0.77639    1.000
    N2576    N        0.41603    0.46031    0.76565    1.000
    N2577    N        0.44033    0.49967    0.82522    1.000
    N2578    N        0.44890    0.43423    0.83619    1.000
    Si2579   Si       0.40688    0.48467    0.80184    1.000
    Si2580   Si       0.45658    0.44571    0.75547    1.000
    N2581    N        0.41139    0.32222    0.92511    1.000
    Si2582   Si       0.41400    0.31946    0.88403    1.000
    Si2583   Si       0.43946    0.30227    0.95235    1.000
    Si2584   Si       0.45297    0.37383    0.89466    1.000
    N2585    N        0.44888    0.37566    0.93804    1.000
    N2586    N        0.41633    0.30071    0.99019    1.000
    N2587    N        0.43876    0.26129    0.93669    1.000
    Si2588   Si       0.41153    0.39784    0.94693    1.000
    N2589    N        0.44866    0.50140    0.94959    1.000
    Si2590   Si       0.45432    0.45919    0.94322    1.000
    N2591    N        0.40873    0.39232    0.99002    1.000
    Si2592   Si       0.43082    0.43723    0.87470    1.000
    N2593    N        0.41776    0.39801    0.88449    1.000
    N2594    N        0.41251    0.44133    0.94380    1.000
    N2595    N        0.44206    0.60357    0.07409    1.000
    Si2596   Si       0.42534    0.62176    0.03562    1.000
    Si2597   Si       0.41485    0.61012    0.10932    1.000
    N2598    N        0.41389    0.52379    0.05294    1.000
    N2599    N        0.44849    0.61144    0.00128    1.000
    Si2600   Si       0.43572    0.67176    0.08691    1.000
    N2601    N        0.43764    0.66372    0.04338    1.000
    N2602    N        0.42713    0.71543    0.09410    1.000
    N2603    N        0.43861    0.72495    0.02327    1.000
    Si2604   Si       0.40969    0.72988    0.05685    1.000
    N2605    N        0.40326    0.65251    0.10678    1.000
    Si2606   Si       0.45952    0.73273    0.11631    1.000
    Si2607   Si       0.42904    0.57968    0.17297    1.000
    N2608    N        0.42776    0.54411    0.14650    1.000
    Si2609   Si       0.42999    0.62731    0.23056    1.000
    N2610    N        0.44213    0.60951    0.14409    1.000
    N2611    N        0.44731    0.58769    0.21203    1.000
    N2612    N        0.43197    0.69895    0.20493    1.000
    Si2613   Si       0.42700    0.74072    0.21188    1.000
    Si2614   Si       0.43546    0.61506    0.30804    1.000
    N2615    N        0.43574    0.57908    0.33122    1.000
    Si2616   Si       0.42077    0.54220    0.34647    1.000
    N2617    N        0.41785    0.60801    0.26699    1.000
    Si2618   Si       0.43421    0.56882    0.25020    1.000
    N2619    N        0.45654    0.51494    0.34188    1.000
    Si2620   Si       0.43793    0.73543    0.28130    1.000
    N2621    N        0.44540    0.68471    0.35776    1.000
    Si2622   Si       0.40733    0.66422    0.35112    1.000
    N2623    N        0.40710    0.73515    0.31232    1.000
    N2624    N        0.40834    0.74233    0.25086    1.000
    Si2625   Si       0.41746    0.56175    0.41800    1.000
    N2626    N        0.41329    0.52920    0.44985    1.000
    Si2627   Si       0.45041    0.62166    0.39633    1.000
    Si2628   Si       0.43265    0.54304    0.48798    1.000
    N2629    N        0.45489    0.58023    0.41206    1.000
    N2630    N        0.43638    0.58599    0.48674    1.000
    N2631    N        0.40113    0.53891    0.38363    1.000
    Si2632   Si       0.41897    0.74671    0.48357    1.000
    Si2633   Si       0.44353    0.71712    0.38651    1.000
    N2634    N        0.45230    0.67386    0.49024    1.000
    N2635    N        0.40537    0.74799    0.38299    1.000
    N2636    N        0.41109    0.63665    0.38706    1.000
    N2637    N        0.42565    0.70486    0.42489    1.000
    Si2638   Si       0.43202    0.67101    0.45082    1.000
    N2639    N        0.41926    0.59034    0.55553    1.000
    Si2640   Si       0.42688    0.56944    0.59218    1.000
    N2641    N        0.41904    0.52716    0.58692    1.000
    Si2642   Si       0.45004    0.60148    0.52544    1.000
    N2643    N        0.40383    0.52058    0.51306    1.000
    N2644    N        0.41914    0.64622    0.58892    1.000
    N2645    N        0.43756    0.70127    0.54798    1.000
    Si2646   Si       0.41426    0.72365    0.57939    1.000
    Si2647   Si       0.41905    0.68314    0.51508    1.000
    Si2648   Si       0.45360    0.66606    0.57342    1.000
    N2649    N        0.41420    0.70905    0.62121    1.000
    N2650    N        0.46069    0.74573    0.49460    1.000
    N2651    N        0.44165    0.58439    0.67813    1.000
    N2652    N        0.43904    0.52062    0.65823    1.000
    N2653    N        0.40687    0.51913    0.72594    1.000
    Si2654   Si       0.45404    0.62567    0.68566    1.000
    N2655    N        0.40422    0.58912    0.62430    1.000
    Si2656   Si       0.44961    0.52606    0.74132    1.000
    Si2657   Si       0.40330    0.50971    0.68171    1.000
    Si2658   Si       0.40752    0.63326    0.62878    1.000
    N2659    N        0.43666    0.65088    0.65427    1.000
    Si2660   Si       0.45166    0.74933    0.68622    1.000
    N2661    N        0.44345    0.64218    0.72385    1.000
    Si2662   Si       0.44994    0.68976    0.63887    1.000
    N2663    N        0.42386    0.73326    0.71727    1.000
    Si2664   Si       0.43302    0.53790    0.84611    1.000
    N2665    N        0.44703    0.54978    0.77717    1.000
    N2666    N        0.42934    0.62468    0.79695    1.000
    Si2667   Si       0.42151    0.58247    0.79125    1.000
    N2668    N        0.40710    0.56871    0.83139    1.000
    N2669    N        0.43531    0.63632    0.86926    1.000
    Si2670   Si       0.41004    0.63534    0.83672    1.000
    N2671    N        0.42301    0.69035    0.77785    1.000
    N2672    N        0.43650    0.73533    0.83017    1.000
    Si2673   Si       0.42170    0.64988    0.76074    1.000
    Si2674   Si       0.43098    0.72745    0.75943    1.000
    Si2675   Si       0.39925    0.70915    0.81180    1.000
    N2676    N        0.39833    0.74682    0.78119    1.000
    N2677    N        0.42471    0.53341    0.88820    1.000
    Si2678   Si       0.43278    0.53417    0.97787    1.000
    N2679    N        0.44414    0.56454    0.94983    1.000
    Si2680   Si       0.44865    0.60698    0.95668    1.000
    N2681    N        0.41338    0.62566    0.93671    1.000
    Si2682   Si       0.45461    0.53390    0.92010    1.000
    Si2683   Si       0.44134    0.64765    0.90971    1.000
    Si2684   Si       0.41531    0.74116    0.99130    1.000
    N2685    N        0.44368    0.74658    0.95927    1.000
    N2686    N        0.43443    0.68998    0.92010    1.000
    Si2687   Si       0.43731    0.79708    0.07729    1.000
    N2688    N        0.42783    0.83601    0.09533    1.000
    N2689    N        0.45526    0.77576    0.11224    1.000
    N2690    N        0.40232    0.77318    0.06163    1.000
    N2691    N        0.42138    0.88851    0.02670    1.000
    N2692    N        0.43681    0.91736    0.08903    1.000
    Si2693   Si       0.41172    0.98181    0.03385    1.000
    N2694    N        0.44953    0.98495    0.05868    1.000
    Si2695   Si       0.40540    0.91300    0.06002    1.000
    Si2696   Si       0.45340    0.95890    0.09412    1.000
    N2697    N        0.43131    0.81275    0.22887    1.000
    Si2698   Si       0.44362    0.84466    0.13533    1.000
    N2699    N        0.40904    0.83602    0.16452    1.000
    N2700    N        0.40187    0.76426    0.18605    1.000
    Si2701   Si       0.40466    0.80669    0.19722    1.000
    Si2702   Si       0.39947    0.97379    0.20311    1.000
    Si2703   Si       0.45833    0.92950    0.22792    1.000
    N2704    N        0.45509    0.98020    0.13246    1.000
    Si2705   Si       0.41278    0.98752    0.14185    1.000
    N2706    N        0.44464    0.91677    0.18928    1.000
    N2707    N        0.43641    0.96643    0.22653    1.000
    Si2708   Si       0.40343    0.91231    0.17911    1.000
    N2709    N        0.42151    0.80278    0.34638    1.000
    N2710    N        0.43973    0.83887    0.28890    1.000
    Si2711   Si       0.44943    0.80492    0.31273    1.000
    Si2712   Si       0.40233    0.82581    0.26138    1.000
    Si2713   Si       0.45917    0.87695    0.28736    1.000
    Si2714   Si       0.43173    0.94208    0.30867    1.000
    N2715    N        0.41427    0.96001    0.34506    1.000
    N2716    N        0.45138    0.90308    0.32200    1.000
    N2717    N        0.44133    0.89728    0.25322    1.000
    N2718    N        0.45628    0.81457    0.48156    1.000
    Si2719   Si       0.43045    0.85123    0.39892    1.000
    Si2720   Si       0.42174    0.78826    0.38681    1.000
    N2721    N        0.44593    0.86894    0.43555    1.000
    N2722    N        0.45814    0.93112    0.46668    1.000
    Si2723   Si       0.43762    0.96894    0.38212    1.000
    N2724    N        0.41444    0.99224    0.41052    1.000
    N2725    N        0.42838    0.00028    0.48165    1.000
    N2726    N        0.44504    0.92769    0.39691    1.000
    Si2727   Si       0.43441    0.91107    0.43662    1.000
    N2728    N        0.43663    0.82293    0.54466    1.000
    Si2729   Si       0.44605    0.86473    0.54479    1.000
    N2730    N        0.43136    0.87602    0.58497    1.000
    Si2731   Si       0.42046    0.81385    0.50704    1.000
    N2732    N        0.43840    0.87960    0.50459    1.000
    N2733    N        0.42489    0.76580    0.58924    1.000
    Si2734   Si       0.44386    0.84240    0.61281    1.000
    Si2735   Si       0.45584    0.78831    0.56888    1.000
    Si2736   Si       0.44510    0.92279    0.50879    1.000
    N2737    N        0.40555    0.93779    0.52205    1.000
    N2738    N        0.45875    0.99877    0.54677    1.000
    Si2739   Si       0.40195    0.90277    0.60843    1.000
    N2740    N        0.40842    0.82161    0.62898    1.000
    N2741    N        0.41373    0.85510    0.69418    1.000
    N2742    N        0.41923    0.76797    0.66571    1.000
    Si2743   Si       0.40556    0.77810    0.62534    1.000
    Si2744   Si       0.45667    0.86558    0.68724    1.000
    N2745    N        0.42828    0.92712    0.63049    1.000
    Si2746   Si       0.44693    0.97103    0.73209    1.000
    N2747    N        0.40732    0.97439    0.71764    1.000
    Si2748   Si       0.41510    0.83065    0.84119    1.000
    N2749    N        0.41706    0.79135    0.86076    1.000
    Si2750   Si       0.45323    0.76878    0.85785    1.000
    N2751    N        0.45407    0.85249    0.82955    1.000
    N2752    N        0.44965    0.00759    0.75625    1.000
    Si2753   Si       0.43791    0.88703    0.84981    1.000
    N2754    N        0.41645    0.89290    0.75673    1.000
    Si2755   Si       0.44391    0.94647    0.85197    1.000
    N2756    N        0.42376    0.91919    0.82484    1.000
    Si2757   Si       0.45978    0.89932    0.75129    1.000
    Si2758   Si       0.45010    0.84779    0.95626    1.000
    N2759    N        0.41252    0.83935    0.97590    1.000
    Si2760   Si       0.44549    0.77973    0.93238    1.000
    N2761    N        0.44122    0.87740    0.92550    1.000
    N2762    N        0.40401    0.79252    0.92900    1.000
    Si2763   Si       0.40000    0.87590    0.90903    1.000
    N2764    N        0.42585    0.98919    0.99240    1.000
    N2765    N        0.45985    0.91464    0.87605    1.000
    N2766    N        0.44514    0.95145    0.93363    1.000
    N2767    N        0.41389    0.97055    0.87422    1.000
    Si2768   Si       0.43427    0.98674    0.90969    1.000
    Si2769   Si       0.47426    0.05450    0.01431    1.000
    N2770    N        0.49702    0.01922    0.01844    1.000
    Si2771   Si       0.48080    0.01450    0.05890    1.000
    N2772    N        0.46226    0.09533    0.11331    1.000
    Si2773   Si       0.50624    0.09645    0.11337    1.000
    N2774    N        0.46419    0.05557    0.05688    1.000
    N2775    N        0.48272    0.09502    0.00286    1.000
    Si2776   Si       0.47776    0.13315    0.02334    1.000
    Si2777   Si       0.51271    0.16302    0.08082    1.000
    N2778    N        0.47701    0.16378    0.10424    1.000
    N2779    N        0.49054    0.24850    0.07657    1.000
    N2780    N        0.50694    0.16127    0.03889    1.000
    Si2781   Si       0.51331    0.23347    0.10910    1.000
    N2782    N        0.50227    0.10106    0.21240    1.000
    Si2783   Si       0.47096    0.07748    0.23029    1.000
    N2784    N        0.46181    0.14293    0.16723    1.000
    Si2785   Si       0.50294    0.13315    0.18401    1.000
    Si2786   Si       0.50884    0.22498    0.18120    1.000
    Si2787   Si       0.48208    0.17602    0.14611    1.000
    N2788    N        0.48433    0.22064    0.21650    1.000
    N2789    N        0.48498    0.22185    0.14234    1.000
    N2790    N        0.51509    0.17609    0.17521    1.000
    N2791    N        0.47938    0.10800    0.31293    1.000
    N2792    N        0.48194    0.03332    0.31873    1.000
    Si2793   Si       0.48655    0.02228    0.27691    1.000
    Si2794   Si       0.51605    0.12058    0.33074    1.000
    N2795    N        0.50249    0.05285    0.24969    1.000
    N2796    N        0.47827    0.15948    0.26127    1.000
    Si2797   Si       0.48244    0.25433    0.24548    1.000
    N2798    N        0.51438    0.14205    0.37027    1.000
    N2799    N        0.51193    0.04122    0.39216    1.000
    Si2800   Si       0.47675    0.06303    0.40654    1.000
    N2801    N        0.49160    0.09419    0.43377    1.000
    Si2802   Si       0.51636    0.02643    0.48577    1.000
    N2803    N        0.47990    0.04892    0.49332    1.000
    Si2804   Si       0.46387    0.07842    0.46493    1.000
    Si2805   Si       0.48423    0.16716    0.39000    1.000
    N2806    N        0.46717    0.16324    0.43135    1.000
    N2807    N        0.50369    0.13313    0.49192    1.000
    N2808    N        0.51927    0.24438    0.44301    1.000
    N2809    N        0.48744    0.21032    0.38702    1.000
    Si2810   Si       0.49649    0.13508    0.44966    1.000
    Si2811   Si       0.50821    0.08385    0.55784    1.000
    N2812    N        0.50611    0.03999    0.56408    1.000
    N2813    N        0.46913    0.10151    0.54694    1.000
    Si2814   Si       0.47039    0.02147    0.58338    1.000
    Si2815   Si       0.46567    0.13489    0.51615    1.000
    N2816    N        0.47207    0.17670    0.53166    1.000
    Si2817   Si       0.50465    0.23901    0.60236    1.000
    N2818    N        0.50310    0.23040    0.55906    1.000
    Si2819   Si       0.51240    0.19512    0.53249    1.000
    Si2820   Si       0.48289    0.07098    0.67891    1.000
    N2821    N        0.49724    0.03040    0.66394    1.000
    N2822    N        0.51082    0.09712    0.65394    1.000
    N2823    N        0.46052    0.05744    0.71372    1.000
    Si2824   Si       0.48234    0.03558    0.74267    1.000
    N2825    N        0.49503    0.21361    0.70787    1.000
    N2826    N        0.48884    0.21552    0.63461    1.000
    Si2827   Si       0.50808    0.14074    0.65452    1.000
    Si2828   Si       0.49308    0.23796    0.67158    1.000
    N2829    N        0.46362    0.15295    0.65103    1.000
    Si2830   Si       0.47083    0.21152    0.74307    1.000
    N2831    N        0.48186    0.05731    0.77984    1.000
    Si2832   Si       0.48800    0.09459    0.79984    1.000
    N2833    N        0.50069    0.12411    0.77189    1.000
    Si2834   Si       0.47303    0.01044    0.84741    1.000
    N2835    N        0.51556    0.02327    0.84256    1.000
    N2836    N        0.49851    0.15358    0.83418    1.000
    N2837    N        0.49959    0.19781    0.77104    1.000
    Si2838   Si       0.50980    0.16096    0.79379    1.000
    N2839    N        0.47441    0.08031    0.92911    1.000
    N2840    N        0.45974    0.15593    0.98871    1.000
    Si2841   Si       0.49318    0.16627    0.96142    1.000
    N2842    N        0.50295    0.25283    0.95185    1.000
    Si2843   Si       0.46595    0.23258    0.95464    1.000
    N2844    N        0.47166    0.19379    0.93582    1.000
    Si2845   Si       0.49479    0.35297    0.03798    1.000
    Si2846   Si       0.48086    0.27931    0.04789    1.000
    N2847    N        0.47138    0.37043    0.00618    1.000
    N2848    N        0.47418    0.32154    0.05644    1.000
    N2849    N        0.51327    0.28258    0.01676    1.000
    N2850    N        0.50861    0.38372    0.06832    1.000
    Si2851   Si       0.48791    0.39045    0.10651    1.000
    Si2852   Si       0.48302    0.44712    0.00989    1.000
    N2853    N        0.48263    0.48765    0.03458    1.000
    N2854    N        0.46489    0.42693    0.10669    1.000
    Si2855   Si       0.47628    0.29237    0.18524    1.000
    N2856    N        0.48028    0.33439    0.17261    1.000
    N2857    N        0.51296    0.27104    0.18015    1.000
    Si2858   Si       0.47615    0.37682    0.18203    1.000
    N2859    N        0.46818    0.28988    0.22666    1.000
    N2860    N        0.49450    0.37912    0.22015    1.000
    N2861    N        0.50692    0.38529    0.14783    1.000
    Si2862   Si       0.49936    0.48791    0.18019    1.000
    N2863    N        0.47038    0.48843    0.21322    1.000
    N2864    N        0.50120    0.44895    0.16322    1.000
    Si2865   Si       0.46024    0.43866    0.14892    1.000
    Si2866   Si       0.50562    0.34538    0.29940    1.000
    Si2867   Si       0.50670    0.27417    0.34635    1.000
    N2868    N        0.50719    0.30284    0.31305    1.000
    N2869    N        0.46981    0.36573    0.28331    1.000
    N2870    N        0.46479    0.26721    0.35567    1.000
    N2871    N        0.48491    0.43103    0.31617    1.000
    Si2872   Si       0.49542    0.45099    0.27830    1.000
    N2873    N        0.50028    0.49246    0.28703    1.000
    N2874    N        0.46489    0.43220    0.25101    1.000
    Si2875   Si       0.46283    0.38976    0.24885    1.000
    N2876    N        0.46325    0.28714    0.42720    1.000
    N2877    N        0.49204    0.34074    0.39217    1.000
    Si2878   Si       0.50073    0.30427    0.41351    1.000
    Si2879   Si       0.47899    0.26139    0.46263    1.000
    Si2880   Si       0.49335    0.42030    0.39746    1.000
    N2881    N        0.46362    0.39849    0.37353    1.000
    N2882    N        0.49189    0.46177    0.38506    1.000
    Si2883   Si       0.47986    0.43360    0.47519    1.000
    Si2884   Si       0.51791    0.49584    0.39803    1.000
    N2885    N        0.49722    0.41490    0.44008    1.000
    N2886    N        0.49167    0.27998    0.61108    1.000
    Si2887   Si       0.50637    0.26959    0.54163    1.000
    N2888    N        0.47219    0.29394    0.54856    1.000
    Si2889   Si       0.49039    0.37632    0.51661    1.000
    N2890    N        0.48235    0.37646    0.55886    1.000
    N2891    N        0.51253    0.27343    0.49840    1.000
    N2892    N        0.48848    0.33950    0.49682    1.000
    N2893    N        0.51039    0.44018    0.56518    1.000
    Si2894   Si       0.49885    0.50188    0.50590    1.000
    Si2895   Si       0.50287    0.48125    0.58163    1.000
    Si2896   Si       0.50808    0.40082    0.58414    1.000
    N2897    N        0.46737    0.47699    0.60821    1.000
    N2898    N        0.46133    0.40240    0.49789    1.000
    N2899    N        0.48549    0.40008    0.62019    1.000
    N2900    N        0.50648    0.45974    0.49761    1.000
    Si2901   Si       0.51696    0.30244    0.63901    1.000
    Si2902   Si       0.47064    0.35917    0.62922    1.000
    N2903    N        0.49307    0.28886    0.73169    1.000
    N2904    N        0.50260    0.34031    0.65134    1.000
    N2905    N        0.46691    0.42186    0.72136    1.000
    Si2906   Si       0.47249    0.44151    0.63099    1.000
    N2907    N        0.50478    0.45087    0.66024    1.000
    Si2908   Si       0.50330    0.43101    0.69897    1.000
    Si2909   Si       0.48923    0.31429    0.76612    1.000
    Si2910   Si       0.47221    0.33147    0.83159    1.000
    N2911    N        0.48642    0.37267    0.82053    1.000
    N2912    N        0.50944    0.32118    0.85156    1.000
    N2913    N        0.46186    0.30625    0.79661    1.000
    N2914    N        0.48564    0.35785    0.75093    1.000
    Si2915   Si       0.51420    0.47682    0.76890    1.000
    Si2916   Si       0.47107    0.40790    0.80531    1.000
    N2917    N        0.48781    0.44404    0.78880    1.000
    Si2918   Si       0.47397    0.47051    0.82532    1.000
    N2919    N        0.50715    0.46012    0.85066    1.000
    N2920    N        0.50337    0.50188    0.80631    1.000
    N2921    N        0.46944    0.48850    0.74936    1.000
    Si2922   Si       0.51042    0.28887    0.97231    1.000
    N2923    N        0.47838    0.31575    0.96123    1.000
    Si2924   Si       0.47918    0.35958    0.96353    1.000
    N2925    N        0.51790    0.37352    0.94719    1.000
    N2926    N        0.49090    0.38831    0.88437    1.000
    N2927    N        0.46547    0.44925    0.90119    1.000
    N2928    N        0.48736    0.44095    0.96556    1.000
    Si2929   Si       0.50058    0.43245    0.88337    1.000
    N2930    N        0.48270    0.54703    0.08100    1.000
    Si2931   Si       0.48655    0.59182    0.07430    1.000
    Si2932   Si       0.48128    0.58271    0.00841    1.000
    N2933    N        0.50802    0.61035    0.10591    1.000
    N2934    N        0.51034    0.59570    0.03835    1.000
    Si2935   Si       0.51095    0.52566    0.10558    1.000
    Si2936   Si       0.45951    0.52123    0.05229    1.000
    N2937    N        0.45975    0.54505    0.01429    1.000
    N2938    N        0.49928    0.72478    0.10001    1.000
    N2939    N        0.50406    0.68774    0.04549    1.000
    Si2940   Si       0.50782    0.68212    0.08947    1.000
    N2941    N        0.47322    0.66254    0.10683    1.000
    Si2942   Si       0.46486    0.68978    0.02336    1.000
    Si2943   Si       0.49052    0.60516    0.20727    1.000
    N2944    N        0.50745    0.57786    0.17917    1.000
    N2945    N        0.49124    0.51672    0.14668    1.000
    Si2946   Si       0.47949    0.62951    0.13419    1.000
    N2947    N        0.50690    0.69955    0.20400    1.000
    N2948    N        0.46506    0.65080    0.23599    1.000
    N2949    N        0.46854    0.75649    0.21763    1.000
    N2950    N        0.48743    0.64212    0.17683    1.000
    Si2951   Si       0.49638    0.73860    0.18868    1.000
    Si2952   Si       0.47126    0.67660    0.19846    1.000
    N2953    N        0.46821    0.72805    0.15613    1.000
    Si2954   Si       0.50799    0.55857    0.27074    1.000
    N2955    N        0.46643    0.54843    0.27180    1.000
    Si2956   Si       0.46280    0.51089    0.29581    1.000
    N2957    N        0.48042    0.62686    0.36555    1.000
    N2958    N        0.50907    0.59872    0.24953    1.000
    Si2959   Si       0.51463    0.72637    0.36246    1.000
    Si2960   Si       0.48218    0.66969    0.27219    1.000
    Si2961   Si       0.48004    0.66418    0.34171    1.000
    N2962    N        0.47276    0.71081    0.28210    1.000
    Si2963   Si       0.49950    0.74606    0.28607    1.000
    N2964    N        0.46651    0.64360    0.30392    1.000
    N2965    N        0.51646    0.68440    0.35067    1.000
    N2966    N        0.51621    0.75206    0.32637    1.000
    N2967    N        0.51721    0.56799    0.38151    1.000
    N2968    N        0.50463    0.62980    0.48027    1.000
    N2969    N        0.46730    0.51895    0.48312    1.000
    Si2970   Si       0.49226    0.55933    0.41646    1.000
    N2971    N        0.48374    0.51793    0.41766    1.000
    N2972    N        0.51447    0.56591    0.45408    1.000
    Si2973   Si       0.50984    0.58641    0.49186    1.000
    Si2974   Si       0.51982    0.60913    0.37409    1.000
    N2975    N        0.46142    0.64687    0.43009    1.000
    Si2976   Si       0.50202    0.64559    0.44026    1.000
    N2977    N        0.48011    0.73961    0.38683    1.000
    N2978    N        0.52024    0.68593    0.43701    1.000
    N2979    N        0.48756    0.57543    0.52835    1.000
    Si2980   Si       0.49061    0.55184    0.56321    1.000
    N2981    N        0.46885    0.57523    0.59465    1.000
    Si2982   Si       0.50657    0.58249    0.61696    1.000
    N2983    N        0.49346    0.50913    0.54885    1.000
    N2984    N        0.47775    0.68339    0.60622    1.000
    Si2985   Si       0.48733    0.65821    0.50828    1.000
    N2986    N        0.50716    0.69276    0.52763    1.000
    Si2987   Si       0.47323    0.72316    0.53072    1.000
    N2988    N        0.46632    0.63867    0.54113    1.000
    Si2989   Si       0.52062    0.69257    0.60573    1.000
    N2990    N        0.48292    0.75429    0.55926    1.000
    Si2991   Si       0.46761    0.54969    0.67444    1.000
    N2992    N        0.50336    0.55630    0.65233    1.000
    N2993    N        0.48060    0.54301    0.71561    1.000
    Si2994   Si       0.51827    0.55030    0.73920    1.000
    N2995    N        0.49728    0.63065    0.68952    1.000
    N2996    N        0.51475    0.69154    0.71454    1.000
    N2997    N        0.47257    0.71772    0.66429    1.000
    Si2998   Si       0.51515    0.70994    0.67333    1.000
    Si2999   Si       0.48883    0.65564    0.72418    1.000
    N3000    N        0.47598    0.55183    0.84290    1.000
    Si3001   Si       0.48409    0.54053    0.80161    1.000
    N3002    N        0.51136    0.56634    0.77853    1.000
    Si3003   Si       0.51373    0.55120    0.86521    1.000
    N3004    N        0.49986    0.64103    0.76312    1.000
    N3005    N        0.49691    0.69589    0.82139    1.000
    N3006    N        0.47169    0.74197    0.76913    1.000
    Si3007   Si       0.47523    0.73298    0.81108    1.000
    Si3008   Si       0.51683    0.66592    0.79646    1.000
    N3009    N        0.51049    0.57527    0.97496    1.000
    N3010    N        0.49481    0.54477    0.90689    1.000
    N3011    N        0.47477    0.63168    0.93179    1.000
    Si3012   Si       0.46103    0.71042    0.94716    1.000
    Si3013   Si       0.51617    0.69130    0.96569    1.000
    N3014    N        0.50066    0.71517    0.93264    1.000
    N3015    N        0.47579    0.68691    0.98253    1.000
    Si3016   Si       0.50666    0.74993    0.90710    1.000
    Si3017   Si       0.51559    0.63754    0.91730    1.000
    N3018    N        0.51809    0.65645    0.87782    1.000
    N3019    N        0.46917    0.79704    0.04896    1.000
    Si3020   Si       0.50891    0.79605    0.03453    1.000
    N3021    N        0.48601    0.88598    0.05202    1.000
    N3022    N        0.49452    0.94130    0.09368    1.000
    Si3023   Si       0.47640    0.89981    0.09156    1.000
    Si3024   Si       0.46159    0.89772    0.01637    1.000
    N3025    N        0.46677    0.93598    0.00123    1.000
    N3026    N        0.51873    0.00086    0.07520    1.000
    N3027    N        0.47303    0.82184    0.15790    1.000
    Si3028   Si       0.48979    0.78836    0.13723    1.000
    N3029    N        0.50255    0.81447    0.22968    1.000
    Si3030   Si       0.49807    0.83419    0.19231    1.000
    N3031    N        0.49307    0.87737    0.20238    1.000
    Si3032   Si       0.46649    0.79284    0.24272    1.000
    N3033    N        0.47073    0.87965    0.13022    1.000
    N3034    N        0.51625    0.77232    0.16874    1.000
    Si3035   Si       0.51531    0.88813    0.23921    1.000
    N3036    N        0.50450    0.93987    0.16282    1.000
    N3037    N        0.48848    0.00134    0.19480    1.000
    N3038    N        0.49949    0.92874    0.24357    1.000
    Si3039   Si       0.47957    0.90394    0.17027    1.000
    Si3040   Si       0.49078    0.98035    0.15610    1.000
    N3041    N        0.48730    0.81656    0.33151    1.000
    N3042    N        0.50319    0.86678    0.27738    1.000
    N3043    N        0.46317    0.77442    0.28363    1.000
    Si3044   Si       0.51689    0.83881    0.30728    1.000
    Si3045   Si       0.48905    0.99323    0.33287    1.000
    N3046    N        0.47104    0.96469    0.30455    1.000
    Si3047   Si       0.50526    0.94937    0.28238    1.000
    N3048    N        0.50688    0.91841    0.36743    1.000
    Si3049   Si       0.46512    0.90532    0.36464    1.000
    N3050    N        0.51568    0.99116    0.26643    1.000
    N3051    N        0.46182    0.80234    0.40079    1.000
    Si3052   Si       0.48797    0.82615    0.37206    1.000
    Si3053   Si       0.49618    0.77672    0.40901    1.000
    N3054    N        0.50509    0.86321    0.47930    1.000
    N3055    N        0.50844    0.77013    0.44884    1.000
    Si3056   Si       0.48446    0.78143    0.48338    1.000
    N3057    N        0.46464    0.86230    0.37360    1.000
    Si3058   Si       0.46314    0.85680    0.47334    1.000
    N3059    N        0.48165    0.99161    0.43627    1.000
    N3060    N        0.47274    0.98801    0.37210    1.000
    Si3061   Si       0.49100    0.96055    0.46477    1.000
    Si3062   Si       0.50840    0.99904    0.39888    1.000
    N3063    N        0.49207    0.86747    0.54486    1.000
    N3064    N        0.47481    0.81393    0.59861    1.000
    Si3065   Si       0.51384    0.84029    0.51737    1.000
    Si3066   Si       0.51550    0.82177    0.60864    1.000
    N3067    N        0.51654    0.79873    0.50528    1.000
    Si3068   Si       0.50141    0.90753    0.55655    1.000
    N3069    N        0.48117    0.93489    0.52997    1.000
    Si3070   Si       0.49389    0.97492    0.53541    1.000
    N3071    N        0.49045    0.92249    0.59519    1.000
    N3072    N        0.47189    0.99166    0.61494    1.000
    Si3073   Si       0.50364    0.96202    0.60619    1.000
    N3074    N        0.50806    0.98528    0.49763    1.000
    N3075    N        0.52219    0.97937    0.56932    1.000
    N3076    N        0.45861    0.86909    0.64491    1.000
    N3077    N        0.48247    0.77195    0.70713    1.000
    Si3078   Si       0.50678    0.80130    0.68651    1.000
    N3079    N        0.48636    0.83893    0.70372    1.000
    Si3080   Si       0.51141    0.84268    0.74127    1.000
    Si3081   Si       0.46584    0.90847    0.62835    1.000
    N3082    N        0.50359    0.91478    0.65732    1.000
    N3083    N        0.46304    0.90129    0.70898    1.000
    Si3084   Si       0.46776    0.99906    0.65825    1.000
    Si3085   Si       0.49238    0.93132    0.69535    1.000
    N3086    N        0.47102    0.96903    0.69269    1.000
    N3087    N        0.51744    0.01224    0.73223    1.000
    N3088    N        0.48584    0.86796    0.76653    1.000
    Si3089   Si       0.49196    0.86661    0.81031    1.000
    N3090    N        0.48487    0.77533    0.82597    1.000
    N3091    N        0.51030    0.80511    0.76784    1.000
    Si3092   Si       0.51821    0.79742    0.81192    1.000
    Si3093   Si       0.49862    0.76918    0.74794    1.000
    Si3094   Si       0.48621    0.94812    0.79820    1.000
    N3095    N        0.50708    0.90868    0.81366    1.000
    N3096    N        0.46754    0.97252    0.82952    1.000
    N3097    N        0.46397    0.94079    0.76087    1.000
    Si3098   Si       0.51273    0.80543    0.95390    1.000
    N3099    N        0.47096    0.81298    0.94585    1.000
    N3100    N        0.47463    0.86937    0.98629    1.000
    N3101    N        0.46753    0.76478    0.89683    1.000
    N3102    N        0.51783    0.78790    0.99312    1.000
    Si3103   Si       0.51217    0.88097    0.96895    1.000
    Si3104   Si       0.46049    0.96676    0.97216    1.000
    Si3105   Si       0.46389    0.91420    0.92038    1.000
    Si3106   Si       0.50900    0.00415    0.91447    1.000
    N3107    N        0.47140    0.00409    0.89244    1.000
    N3108    N        0.49748    0.98460    0.95401    1.000
    N3109    N        0.50497    0.91262    0.93984    1.000
    N3110    N        0.56699    0.03489    0.01990    1.000
    Si3111   Si       0.53968    0.01754    0.10923    1.000
    N3112    N        0.53069    0.12208    0.08621    1.000
    Si3113   Si       0.57331    0.11639    0.08660    1.000
    N3114    N        0.51951    0.05678    0.11344    1.000
    Si3115   Si       0.57350    0.19874    0.07420    1.000
    N3116    N        0.53329    0.19706    0.09288    1.000
    Si3117   Si       0.54088    0.17627    0.01458    1.000
    N3118    N        0.56566    0.20692    0.03005    1.000
    N3119    N        0.56091    0.13877    0.00409    1.000
    N3120    N        0.56470    0.08839    0.19679    1.000
    Si3121   Si       0.56406    0.11422    0.15881    1.000
    Si3122   Si       0.53498    0.06906    0.22688    1.000
    N3123    N        0.55702    0.02885    0.21711    1.000
    N3124    N        0.52050    0.11445    0.14977    1.000
    Si3125   Si       0.57390    0.11825    0.23981    1.000
    Si3126   Si       0.55927    0.17658    0.19778    1.000
    N3127    N        0.54359    0.14670    0.22889    1.000
    N3128    N        0.55013    0.22175    0.19956    1.000
    Si3129   Si       0.55476    0.23306    0.24231    1.000
    N3130    N        0.55024    0.25298    0.12578    1.000
    N3131    N        0.53701    0.08223    0.33488    1.000
    N3132    N        0.55936    0.08468    0.26202    1.000
    Si3133   Si       0.56431    0.07049    0.30266    1.000
    N3134    N        0.56478    0.02775    0.29336    1.000
    N3135    N        0.58019    0.03240    0.36466    1.000
    Si3136   Si       0.57147    0.23234    0.34871    1.000
    N3137    N        0.54697    0.19721    0.26644    1.000
    Si3138   Si       0.56749    0.17404    0.29687    1.000
    N3139    N        0.53387    0.14616    0.30159    1.000
    N3140    N        0.53796    0.25029    0.32866    1.000
    Si3141   Si       0.52097    0.16131    0.26189    1.000
    Si3142   Si       0.54553    0.06034    0.37242    1.000
    N3143    N        0.55880    0.03841    0.48321    1.000
    N3144    N        0.55746    0.09411    0.39845    1.000
    Si3145   Si       0.54132    0.24429    0.48166    1.000
    N3146    N        0.55762    0.21868    0.38738    1.000
    Si3147   Si       0.52072    0.23594    0.40205    1.000
    Si3148   Si       0.54945    0.13560    0.39941    1.000
    N3149    N        0.53132    0.15629    0.43334    1.000
    Si3150   Si       0.55067    0.17640    0.46664    1.000
    N3151    N        0.56594    0.14117    0.48803    1.000
    N3152    N        0.53864    0.08903    0.52755    1.000
    Si3153   Si       0.54219    0.02063    0.57623    1.000
    N3154    N        0.54641    0.04007    0.61516    1.000
    N3155    N        0.52809    0.10351    0.59022    1.000
    N3156    N        0.57406    0.03393    0.55114    1.000
    Si3157   Si       0.57275    0.06330    0.51749    1.000
    Si3158   Si       0.53657    0.13132    0.51779    1.000
    Si3159   Si       0.54735    0.14318    0.58928    1.000
    N3160    N        0.53573    0.16049    0.55068    1.000
    N3161    N        0.54852    0.23562    0.60885    1.000
    N3162    N        0.53280    0.20480    0.49543    1.000
    Si3163   Si       0.54294    0.08155    0.62643    1.000
    Si3164   Si       0.53459    0.01766    0.65030    1.000
    Si3165   Si       0.54426    0.04305    0.71536    1.000
    N3166    N        0.56249    0.03635    0.67853    1.000
    Si3167   Si       0.52183    0.11997    0.73275    1.000
    N3168    N        0.51818    0.07898    0.71578    1.000
    N3169    N        0.57336    0.04751    0.74935    1.000
    Si3170   Si       0.53115    0.19090    0.70482    1.000
    N3171    N        0.53490    0.16083    0.62678    1.000
    N3172    N        0.52124    0.14814    0.69748    1.000
    N3173    N        0.55069    0.21458    0.67132    1.000
    N3174    N        0.56260    0.19558    0.73443    1.000
    Si3175   Si       0.55451    0.19845    0.63293    1.000
    Si3176   Si       0.56315    0.25624    0.67707    1.000
    Si3177   Si       0.53132    0.06098    0.86344    1.000
    Si3178   Si       0.52477    0.12367    0.85283    1.000
    N3179    N        0.57512    0.06454    0.86086    1.000
    N3180    N        0.56534    0.11663    0.74655    1.000
    N3181    N        0.57835    0.00904    0.80904    1.000
    N3182    N        0.52223    0.08931    0.82829    1.000
    N3183    N        0.55699    0.24515    0.78081    1.000
    N3184    N        0.55284    0.17073    0.79638    1.000
    Si3185   Si       0.54224    0.20743    0.77232    1.000
    N3186    N        0.56306    0.21662    0.84666    1.000
    Si3187   Si       0.57366    0.17484    0.83758    1.000
    N3188    N        0.55550    0.15196    0.86878    1.000
    Si3189   Si       0.57454    0.24825    0.81954    1.000
    N3190    N        0.54499    0.08167    0.96091    1.000
    Si3191   Si       0.55684    0.12216    0.96497    1.000
    N3192    N        0.53431    0.04031    0.90640    1.000
    N3193    N        0.51879    0.09721    0.88776    1.000
    Si3194   Si       0.57400    0.05516    0.98016    1.000
    Si3195   Si       0.51629    0.07721    0.92771    1.000
    Si3196   Si       0.55407    0.16107    0.91175    1.000
    N3197    N        0.52186    0.19289    0.98018    1.000
    N3198    N        0.54749    0.20502    0.91315    1.000
    Si3199   Si       0.53533    0.22341    0.95126    1.000
    N3200    N        0.52247    0.14353    0.94044    1.000
    N3201    N        0.56997    0.24412    0.96383    1.000
    Si3202   Si       0.56624    0.23155    0.88602    1.000
    N3203    N        0.55720    0.29532    0.07487    1.000
    N3204    N        0.53837    0.34336    0.03264    1.000
    Si3205   Si       0.54880    0.30096    0.03257    1.000
    N3206    N        0.57318    0.36782    0.09735    1.000
    Si3207   Si       0.57036    0.32619    0.10536    1.000
    Si3208   Si       0.55088    0.37687    0.06020    1.000
    Si3209   Si       0.56011    0.46698    0.09136    1.000
    N3210    N        0.54949    0.42880    0.10676    1.000
    N3211    N        0.52630    0.44391    0.02076    1.000
    Si3212   Si       0.52831    0.48510    0.04201    1.000
    N3213    N        0.52370    0.49046    0.08421    1.000
    Si3214   Si       0.56850    0.43672    0.01499    1.000
    Si3215   Si       0.54846    0.28166    0.15844    1.000
    N3216    N        0.54140    0.31704    0.13630    1.000
    Si3217   Si       0.53535    0.36871    0.22865    1.000
    N3218    N        0.54467    0.34217    0.19724    1.000
    Si3219   Si       0.52130    0.34577    0.16055    1.000
    Si3220   Si       0.52940    0.42280    0.14646    1.000
    N3221    N        0.56649    0.39994    0.22718    1.000
    N3222    N        0.57404    0.47091    0.23042    1.000
    N3223    N        0.56738    0.40928    0.16098    1.000
    Si3224   Si       0.53639    0.27705    0.29476    1.000
    N3225    N        0.53691    0.35159    0.26919    1.000
    N3226    N        0.57346    0.29911    0.29785    1.000
    Si3227   Si       0.57615    0.33734    0.27382    1.000
    N3228    N        0.52349    0.25930    0.25804    1.000
    N3229    N        0.51994    0.37162    0.33304    1.000
    Si3230   Si       0.56928    0.43552    0.25347    1.000
    N3231    N        0.55322    0.42998    0.33958    1.000
    Si3232   Si       0.56390    0.47075    0.34656    1.000
    N3233    N        0.53323    0.42969    0.27645    1.000
    N3234    N        0.53746    0.50176    0.35889    1.000
    Si3235   Si       0.52487    0.41102    0.31480    1.000
    Si3236   Si       0.52461    0.36442    0.37494    1.000
    Si3237   Si       0.56435    0.33534    0.43168    1.000
    N3238    N        0.56445    0.37366    0.45536    1.000
    N3239    N        0.55818    0.34057    0.38783    1.000
    N3240    N        0.52793    0.31600    0.44436    1.000
    Si3241   Si       0.52196    0.31454    0.48576    1.000
    N3242    N        0.51882    0.27727    0.38730    1.000
    N3243    N        0.57821    0.26528    0.49061    1.000
    Si3244   Si       0.57404    0.41633    0.37498    1.000
    Si3245   Si       0.55484    0.47615    0.48082    1.000
    N3246    N        0.55102    0.50403    0.42760    1.000
    N3247    N        0.53583    0.40210    0.39559    1.000
    N3248    N        0.55934    0.44633    0.44841    1.000
    Si3249   Si       0.54134    0.40764    0.43972    1.000
    N3250    N        0.54689    0.28094    0.55571    1.000
    Si3251   Si       0.56704    0.27205    0.59414    1.000
    N3252    N        0.55575    0.33057    0.50372    1.000
    Si3253   Si       0.57262    0.29585    0.52429    1.000
    Si3254   Si       0.56430    0.37201    0.49953    1.000
    N3255    N        0.54693    0.38422    0.58804    1.000
    N3256    N        0.53689    0.49029    0.60783    1.000
    N3257    N        0.56865    0.45585    0.51840    1.000
    Si3258   Si       0.52956    0.43713    0.52613    1.000
    N3259    N        0.52820    0.39647    0.51302    1.000
    Si3260   Si       0.57023    0.40232    0.62481    1.000
    N3261    N        0.55791    0.30195    0.62467    1.000
    N3262    N        0.56589    0.36598    0.64993    1.000
    N3263    N        0.54114    0.33437    0.71047    1.000
    N3264    N        0.56604    0.27004    0.71652    1.000
    Si3265   Si       0.53218    0.36095    0.67691    1.000
    Si3266   Si       0.52983    0.29259    0.71076    1.000
    N3267    N        0.52139    0.27187    0.67134    1.000
    Si3268   Si       0.52873    0.36043    0.74664    1.000
    Si3269   Si       0.55295    0.48599    0.71488    1.000
    N3270    N        0.54473    0.50262    0.67616    1.000
    Si3271   Si       0.54060    0.47046    0.64708    1.000
    N3272    N        0.52941    0.45198    0.72985    1.000
    N3273    N        0.52692    0.39412    0.70547    1.000
    N3274    N        0.57235    0.43959    0.64726    1.000
    Si3275   Si       0.55299    0.41626    0.73506    1.000
    Si3276   Si       0.56701    0.31515    0.80190    1.000
    N3277    N        0.53100    0.32392    0.77736    1.000
    N3278    N        0.56509    0.28724    0.83363    1.000
    N3279    N        0.57667    0.35134    0.82267    1.000
    Si3280   Si       0.51920    0.36587    0.85863    1.000
    Si3281   Si       0.54637    0.30459    0.86853    1.000
    N3282    N        0.57677    0.46575    0.85494    1.000
    N3283    N        0.55217    0.39138    0.76821    1.000
    Si3284   Si       0.56620    0.39136    0.80936    1.000
    N3285    N        0.54684    0.39935    0.84795    1.000
    Si3286   Si       0.53778    0.48723    0.83393    1.000
    N3287    N        0.56073    0.47713    0.79523    1.000
    Si3288   Si       0.57818    0.50594    0.76720    1.000
    N3289    N        0.55432    0.34505    0.88623    1.000
    N3290    N        0.55097    0.27213    0.89869    1.000
    Si3291   Si       0.57132    0.28055    0.93611    1.000
    N3292    N        0.54452    0.30801    0.95539    1.000
    Si3293   Si       0.54906    0.34706    0.93005    1.000
    Si3294   Si       0.56768    0.42842    0.87524    1.000
    N3295    N        0.56339    0.41765    0.97199    1.000
    Si3296   Si       0.52561    0.41778    0.94980    1.000
    N3297    N        0.53719    0.43295    0.90872    1.000
    Si3298   Si       0.55113    0.60719    0.03353    1.000
    N3299    N        0.54744    0.52001    0.02127    1.000
    Si3300   Si       0.54981    0.62471    0.10492    1.000
    N3301    N        0.57513    0.61361    0.07125    1.000
    N3302    N        0.57386    0.57572    0.01346    1.000
    N3303    N        0.55058    0.64417    0.01230    1.000
    N3304    N        0.54717    0.66808    0.09645    1.000
    Si3305   Si       0.54408    0.68305    0.02992    1.000
    N3306    N        0.56818    0.73469    0.10496    1.000
    Si3307   Si       0.53159    0.75243    0.09106    1.000
    Si3308   Si       0.54539    0.75389    0.00477    1.000
    N3309    N        0.54553    0.54158    0.12614    1.000
    N3310    N        0.53386    0.51129    0.19416    1.000
    N3311    N        0.56852    0.61949    0.14353    1.000
    Si3312   Si       0.56359    0.51330    0.22722    1.000
    Si3313   Si       0.52469    0.54277    0.16397    1.000
    N3314    N        0.55356    0.64056    0.21282    1.000
    Si3315   Si       0.53763    0.67886    0.22539    1.000
    N3316    N        0.57113    0.70522    0.23122    1.000
    N3317    N        0.55223    0.61830    0.34939    1.000
    Si3318   Si       0.53658    0.54422    0.34958    1.000
    Si3319   Si       0.56669    0.56359    0.28643    1.000
    Si3320   Si       0.54192    0.62435    0.25408    1.000
    N3321    N        0.57066    0.60908    0.28196    1.000
    N3322    N        0.52850    0.55956    0.31014    1.000
    N3323    N        0.54595    0.54320    0.25284    1.000
    Si3324   Si       0.55507    0.66203    0.35348    1.000
    N3325    N        0.52431    0.66421    0.26367    1.000
    Si3326   Si       0.57016    0.73980    0.25601    1.000
    N3327    N        0.53041    0.75477    0.25730    1.000
    N3328    N        0.53686    0.51559    0.49178    1.000
    Si3329   Si       0.54940    0.54020    0.45685    1.000
    N3330    N        0.52788    0.62298    0.41410    1.000
    Si3331   Si       0.57037    0.63185    0.41895    1.000
    N3332    N        0.57542    0.63809    0.46045    1.000
    N3333    N        0.57143    0.66629    0.39352    1.000
    Si3334   Si       0.55564    0.70114    0.41643    1.000
    N3335    N        0.55065    0.73350    0.38676    1.000
    N3336    N        0.55074    0.58600    0.51223    1.000
    N3337    N        0.52929    0.56256    0.58446    1.000
    Si3338   Si       0.55349    0.53047    0.60272    1.000
    Si3339   Si       0.55798    0.57197    0.55246    1.000
    N3340    N        0.57722    0.60784    0.56859    1.000
    Si3341   Si       0.56287    0.63447    0.59866    1.000
    N3342    N        0.55325    0.73852    0.54736    1.000
    N3343    N        0.54641    0.67201    0.57994    1.000
    Si3344   Si       0.54962    0.69579    0.53992    1.000
    N3345    N        0.52550    0.73640    0.61125    1.000
    N3346    N        0.53019    0.61861    0.62334    1.000
    Si3347   Si       0.57069    0.59647    0.71931    1.000
    Si3348   Si       0.54190    0.54457    0.66965    1.000
    N3349    N        0.54391    0.56682    0.70743    1.000
    N3350    N        0.57106    0.62835    0.68547    1.000
    N3351    N        0.56929    0.55053    0.63792    1.000
    N3352    N        0.54851    0.73782    0.67277    1.000
    Si3353   Si       0.54786    0.70890    0.73958    1.000
    Si3354   Si       0.53317    0.63783    0.66376    1.000
    N3355    N        0.53070    0.67820    0.64815    1.000
    Si3356   Si       0.53524    0.59629    0.79872    1.000
    N3357    N        0.56473    0.59850    0.76521    1.000
    N3358    N        0.54654    0.51986    0.86305    1.000
    Si3359   Si       0.54026    0.62045    0.86046    1.000
    N3360    N        0.53450    0.58179    0.84091    1.000
    N3361    N        0.53839    0.51204    0.74878    1.000
    N3362    N        0.53736    0.63592    0.81731    1.000
    N3363    N        0.56541    0.70137    0.83818    1.000
    N3364    N        0.54839    0.68729    0.77629    1.000
    Si3365   Si       0.55961    0.74490    0.84936    1.000
    N3366    N        0.52365    0.73270    0.87153    1.000
    Si3367   Si       0.52371    0.69353    0.85504    1.000
    N3368    N        0.54027    0.75047    0.74816    1.000
    Si3369   Si       0.54418    0.55110    0.99159    1.000
    N3370    N        0.55391    0.54132    0.95068    1.000
    N3371    N        0.52975    0.59942    0.90740    1.000
    Si3372   Si       0.52244    0.56600    0.93254    1.000
    N3373    N        0.57943    0.63161    0.87737    1.000
    N3374    N        0.54182    0.71204    0.99593    1.000
    N3375    N        0.53702    0.65868    0.94773    1.000
    Si3376   Si       0.57120    0.64745    0.97444    1.000
    Si3377   Si       0.54685    0.82237    0.08750    1.000
    Si3378   Si       0.52806    0.87647    0.04383    1.000
    N3379    N        0.52668    0.83358    0.05011    1.000
    N3380    N        0.56330    0.85446    0.10939    1.000
    N3381    N        0.52268    0.79103    0.10783    1.000
    N3382    N        0.53127    0.75757    0.04699    1.000
    N3383    N        0.53740    0.88809    0.00370    1.000
    N3384    N        0.54603    0.90469    0.07203    1.000
    N3385    N        0.54833    0.96322    0.03727    1.000
    Si3386   Si       0.53535    0.94754    0.07707    1.000
    N3387    N        0.56499    0.95223    0.11036    1.000
    Si3388   Si       0.56827    0.89817    0.10895    1.000
    Si3389   Si       0.53794    0.00617    0.03515    1.000
    Si3390   Si       0.55062    0.79874    0.17367    1.000
    Si3391   Si       0.56144    0.87599    0.18254    1.000
    N3392    N        0.53833    0.83935    0.17417    1.000
    N3393    N        0.56655    0.79222    0.21235    1.000
    N3394    N        0.55807    0.90397    0.15027    1.000
    Si3395   Si       0.55316    0.00628    0.18009    1.000
    N3396    N        0.53013    0.99475    0.14548    1.000
    N3397    N        0.55701    0.88779    0.22522    1.000
    N3398    N        0.57061    0.96555    0.18372    1.000
    Si3399   Si       0.54699    0.94591    0.15114    1.000
    N3400    N        0.54060    0.80510    0.28983    1.000
    Si3401   Si       0.55224    0.77155    0.31558    1.000
    N3402    N        0.53801    0.85934    0.34010    1.000
    N3403    N        0.57656    0.78752    0.34802    1.000
    Si3404   Si       0.53856    0.79756    0.24696    1.000
    Si3405   Si       0.57527    0.83018    0.34657    1.000
    N3406    N        0.53003    0.98244    0.34000    1.000
    Si3407   Si       0.53606    0.93927    0.34516    1.000
    N3408    N        0.53329    0.92541    0.30346    1.000
    N3409    N        0.57076    0.91221    0.35511    1.000
    Si3410   Si       0.55457    0.00451    0.25397    1.000
    Si3411   Si       0.56586    0.00437    0.33113    1.000
    Si3412   Si       0.56721    0.89270    0.31407    1.000
    N3413    N        0.52672    0.87147    0.41322    1.000
    N3414    N        0.56269    0.81906    0.45452    1.000
    Si3415   Si       0.54277    0.78522    0.47152    1.000
    Si3416   Si       0.55060    0.83363    0.41493    1.000
    N3417    N        0.52326    0.80665    0.39215    1.000
    Si3418   Si       0.57738    0.84766    0.48806    1.000
    Si3419   Si       0.53900    0.88538    0.37574    1.000
    Si3420   Si       0.52690    0.88920    0.45385    1.000
    N3421    N        0.54878    0.98418    0.41016    1.000
    Si3422   Si       0.55949    0.95329    0.43940    1.000
    N3423    N        0.56694    0.88431    0.47054    1.000
    N3424    N        0.52240    0.93200    0.44955    1.000
    N3425    N        0.55610    0.84757    0.52793    1.000
    N3426    N        0.54152    0.79967    0.58116    1.000
    N3427    N        0.52930    0.86319    0.60618    1.000
    Si3428   Si       0.57375    0.82428    0.56302    1.000
    Si3429   Si       0.52483    0.76039    0.57247    1.000
    Si3430   Si       0.55902    0.88568    0.58489    1.000
    N3431    N        0.54542    0.91352    0.55655    1.000
    Si3432   Si       0.55957    0.95539    0.56046    1.000
    N3433    N        0.56880    0.91085    0.62220    1.000
    N3434    N        0.55626    0.86360    0.66806    1.000
    N3435    N        0.54243    0.80539    0.71070    1.000
    Si3436   Si       0.56745    0.82381    0.67869    1.000
    Si3437   Si       0.55390    0.76487    0.63591    1.000
    N3438    N        0.52562    0.79908    0.64767    1.000
    Si3439   Si       0.56564    0.78440    0.74172    1.000
    N3440    N        0.54654    0.86837    0.74413    1.000
    N3441    N        0.52956    0.97588    0.63856    1.000
    Si3442   Si       0.53423    0.97333    0.74373    1.000
    Si3443   Si       0.53283    0.88803    0.64297    1.000
    Si3444   Si       0.55532    0.91042    0.74282    1.000
    N3445    N        0.52595    0.93583    0.72377    1.000
    Si3446   Si       0.56569    0.95245    0.63612    1.000
    Si3447   Si       0.55659    0.85005    0.85113    1.000
    N3448    N        0.55664    0.77703    0.82121    1.000
    N3449    N        0.52229    0.83906    0.82679    1.000
    Si3450   Si       0.54918    0.92148    0.81810    1.000
    N3451    N        0.55126    0.95693    0.84080    1.000
    Si3452   Si       0.53840    0.99187    0.81946    1.000
    N3453    N        0.56565    0.89146    0.84529    1.000
    N3454    N        0.57279    0.92248    0.78227    1.000
    N3455    N        0.52070    0.97130    0.78561    1.000
    Si3456   Si       0.56659    0.84196    0.93245    1.000
    N3457    N        0.54990    0.84391    0.89319    1.000
    N3458    N        0.52957    0.84528    0.95327    1.000
    N3459    N        0.53446    0.77771    0.92655    1.000
    Si3460   Si       0.56763    0.96323    0.87920    1.000
    N3461    N        0.53825    0.96992    0.90858    1.000
    Si3462   Si       0.52701    0.95098    0.94739    1.000
    N3463    N        0.56306    0.95821    0.97181    1.000
    Si3464   Si       0.59361    0.11490    0.02177    1.000
    Si3465   Si       0.59253    0.04667    0.05808    1.000
    N3466    N        0.63239    0.03099    0.05252    1.000
    N3467    N        0.58933    0.09075    0.05712    1.000
    N3468    N        0.58034    0.02254    0.09386    1.000
    N3469    N        0.62926    0.13880    0.03301    1.000
    Si3470   Si       0.58399    0.24074    0.00461    1.000
    N3471    N        0.60148    0.23036    0.08663    1.000
    N3472    N        0.58824    0.15785    0.07895    1.000
    Si3473   Si       0.63047    0.15294    0.07332    1.000
    N3474    N        0.62696    0.23312    0.00223    1.000
    Si3475   Si       0.61023    0.02084    0.12632    1.000
    N3476    N        0.58477    0.10114    0.12519    1.000
    Si3477   Si       0.62923    0.09759    0.12735    1.000
    Si3478   Si       0.58996    0.05301    0.19529    1.000
    N3479    N        0.61525    0.11857    0.22560    1.000
    N3480    N        0.62990    0.05407    0.20665    1.000
    N3481    N        0.64026    0.11395    0.16560    1.000
    N3482    N        0.58635    0.02831    0.16123    1.000
    Si3483   Si       0.62376    0.15376    0.18338    1.000
    N3484    N        0.58011    0.15312    0.16769    1.000
    Si3485   Si       0.62254    0.21635    0.23560    1.000
    N3486    N        0.60222    0.18305    0.21618    1.000
    Si3487   Si       0.62760    0.15738    0.24529    1.000
    N3488    N        0.60202    0.08278    0.32352    1.000
    Si3489   Si       0.61667    0.05628    0.35388    1.000
    Si3490   Si       0.61694    0.11945    0.30561    1.000
    N3491    N        0.59338    0.14437    0.27826    1.000
    N3492    N        0.58837    0.20241    0.32165    1.000
    Si3493   Si       0.62759    0.19164    0.31299    1.000
    N3494    N        0.62830    0.15329    0.33198    1.000
    N3495    N        0.63680    0.19254    0.27026    1.000
    N3496    N        0.59632    0.24918    0.24698    1.000
    Si3497   Si       0.59224    0.01593    0.46846    1.000
    N3498    N        0.60806    0.02536    0.42974    1.000
    N3499    N        0.62654    0.12497    0.45537    1.000
    Si3500   Si       0.60648    0.13224    0.49387    1.000
    Si3501   Si       0.58936    0.19727    0.40971    1.000
    N3502    N        0.62619    0.20511    0.38755    1.000
    N3503    N        0.58618    0.15688    0.39285    1.000
    N3504    N        0.58641    0.19907    0.45554    1.000
    Si3505   Si       0.62424    0.20017    0.47810    1.000
    Si3506   Si       0.62563    0.16198    0.37359    1.000
    N3507    N        0.60608    0.09308    0.51418    1.000
    N3508    N        0.62015    0.02031    0.50218    1.000
    N3509    N        0.62603    0.07574    0.58611    1.000
    Si3510   Si       0.61695    0.10785    0.61509    1.000
    Si3511   Si       0.63855    0.03915    0.60734    1.000
    N3512    N        0.63074    0.00717    0.57787    1.000
    Si3513   Si       0.63588    0.09289    0.54621    1.000
    N3514    N        0.59145    0.13689    0.59001    1.000
    Si3515   Si       0.61915    0.16975    0.59915    1.000
    N3516    N        0.62306    0.16872    0.50804    1.000
    N3517    N        0.63566    0.19646    0.57002    1.000
    N3518    N        0.63926    0.23693    0.50013    1.000
    N3519    N        0.58255    0.09115    0.63867    1.000
    Si3520   Si       0.59753    0.05925    0.66467    1.000
    N3521    N        0.62209    0.02651    0.64624    1.000
    N3522    N        0.61164    0.07815    0.70077    1.000
    Si3523   Si       0.59354    0.08436    0.73904    1.000
    Si3524   Si       0.61827    0.21812    0.65557    1.000
    N3525    N        0.59661    0.19163    0.62893    1.000
    Si3526   Si       0.60555    0.19583    0.73268    1.000
    N3527    N        0.60261    0.25999    0.66086    1.000
    N3528    N        0.62637    0.19402    0.69283    1.000
    Si3529   Si       0.60171    0.09428    0.83970    1.000
    N3530    N        0.62683    0.05929    0.82542    1.000
    Si3531   Si       0.59702    0.03062    0.84124    1.000
    N3532    N        0.58911    0.12457    0.81483    1.000
    N3533    N        0.62910    0.09102    0.76263    1.000
    N3534    N        0.63254    0.01808    0.77216    1.000
    Si3535   Si       0.59129    0.01211    0.76837    1.000
    N3536    N        0.62468    0.11369    0.87192    1.000
    N3537    N        0.61492    0.16050    0.75736    1.000
    N3538    N        0.61848    0.24451    0.82050    1.000
    N3539    N        0.61603    0.18046    0.84782    1.000
    Si3540   Si       0.62498    0.22141    0.85623    1.000
    N3541    N        0.61667    0.23241    0.75354    1.000
    Si3542   Si       0.57953    0.14433    0.77639    1.000
    N3543    N        0.58325    0.02421    0.95247    1.000
    N3544    N        0.62267    0.04968    0.90852    1.000
    N3545    N        0.60532    0.08762    0.99015    1.000
    Si3546   Si       0.58159    0.03573    0.90424    1.000
    Si3547   Si       0.62799    0.15060    0.94012    1.000
    N3548    N        0.60833    0.24242    0.88871    1.000
    N3549    N        0.58444    0.14575    0.93820    1.000
    N3550    N        0.61925    0.34013    0.05294    1.000
    Si3551   Si       0.62011    0.30120    0.02946    1.000
    N3552    N        0.60618    0.29997    0.11233    1.000
    N3553    N        0.58412    0.28446    0.01588    1.000
    Si3554   Si       0.61860    0.37847    0.03592    1.000
    Si3555   Si       0.58186    0.26664    0.09650    1.000
    Si3556   Si       0.61728    0.47749    0.03757    1.000
    N3557    N        0.62098    0.42265    0.11444    1.000
    Si3558   Si       0.62807    0.46525    0.11165    1.000
    N3559    N        0.59195    0.48779    0.11307    1.000
    N3560    N        0.61058    0.45057    0.00463    1.000
    Si3561   Si       0.58333    0.40284    0.11995    1.000
    N3562    N        0.58063    0.40101    0.03893    1.000
    N3563    N        0.57586    0.46902    0.05165    1.000
    Si3564   Si       0.62603    0.28464    0.15042    1.000
    N3565    N        0.59044    0.28978    0.17508    1.000
    Si3566   Si       0.58688    0.32677    0.19753    1.000
    N3567    N        0.61019    0.36128    0.18291    1.000
    N3568    N        0.59411    0.31799    0.23916    1.000
    Si3569   Si       0.59341    0.39991    0.19368    1.000
    Si3570   Si       0.61766    0.47225    0.21554    1.000
    N3571    N        0.62403    0.42950    0.20160    1.000
    Si3572   Si       0.60769    0.29563    0.32445    1.000
    N3573    N        0.59867    0.36600    0.29529    1.000
    Si3574   Si       0.62105    0.37050    0.33268    1.000
    N3575    N        0.62518    0.32960    0.34758    1.000
    Si3576   Si       0.61843    0.28694    0.25339    1.000
    N3577    N        0.60525    0.26243    0.35132    1.000
    N3578    N        0.60470    0.38582    0.36832    1.000
    Si3579   Si       0.62875    0.39187    0.27665    1.000
    N3580    N        0.59537    0.48177    0.31892    1.000
    N3581    N        0.60709    0.42942    0.27651    1.000
    Si3582   Si       0.62369    0.46612    0.29208    1.000
    N3583    N        0.63617    0.48063    0.25236    1.000
    N3584    N        0.60738    0.32698    0.42190    1.000
    Si3585   Si       0.60146    0.34357    0.38260    1.000
    Si3586   Si       0.61950    0.27288    0.49135    1.000
    N3587    N        0.59992    0.49527    0.47358    1.000
    Si3588   Si       0.58501    0.47557    0.42593    1.000
    Si3589   Si       0.63098    0.46771    0.37958    1.000
    N3590    N        0.62955    0.46456    0.42514    1.000
    N3591    N        0.58734    0.45887    0.38183    1.000
    N3592    N        0.61711    0.30484    0.52606    1.000
    N3593    N        0.59726    0.33488    0.58574    1.000
    Si3594   Si       0.62546    0.30413    0.56973    1.000
    N3595    N        0.60940    0.26776    0.58811    1.000
    Si3596   Si       0.58641    0.37457    0.56990    1.000
    N3597    N        0.59487    0.38176    0.52845    1.000
    N3598    N        0.60578    0.40288    0.59989    1.000
    Si3599   Si       0.60703    0.47131    0.51012    1.000
    N3600    N        0.62302    0.49469    0.54107    1.000
    Si3601   Si       0.63192    0.39969    0.51655    1.000
    N3602    N        0.63189    0.43847    0.49484    1.000
    N3603    N        0.61875    0.35707    0.73087    1.000
    N3604    N        0.62067    0.32713    0.65635    1.000
    Si3605   Si       0.58736    0.33427    0.62957    1.000
    Si3606   Si       0.63285    0.35538    0.68741    1.000
    Si3607   Si       0.64015    0.28743    0.65742    1.000
    N3608    N        0.63207    0.40026    0.68113    1.000
    Si3609   Si       0.62335    0.40035    0.72902    1.000
    N3610    N        0.58934    0.42681    0.71876    1.000
    Si3611   Si       0.60311    0.43528    0.67728    1.000
    N3612    N        0.59501    0.49259    0.72563    1.000
    Si3613   Si       0.63299    0.49455    0.70122    1.000
    N3614    N        0.63841    0.46332    0.66656    1.000
    N3615    N        0.59990    0.30148    0.77459    1.000
    Si3616   Si       0.62790    0.33435    0.76673    1.000
    Si3617   Si       0.58685    0.36367    0.86290    1.000
    Si3618   Si       0.58729    0.26420    0.75395    1.000
    N3619    N        0.62306    0.33955    0.87349    1.000
    Si3620   Si       0.59455    0.45863    0.81447    1.000
    N3621    N        0.60020    0.41665    0.80817    1.000
    N3622    N        0.62576    0.48132    0.79502    1.000
    Si3623   Si       0.58639    0.50446    0.87328    1.000
    N3624    N        0.62354    0.37294    0.99354    1.000
    Si3625   Si       0.62367    0.33282    0.91711    1.000
    N3626    N        0.59135    0.35683    0.93834    1.000
    N3627    N        0.61253    0.29220    0.93011    1.000
    N3628    N        0.60344    0.40343    0.88032    1.000
    N3629    N        0.60268    0.50833    0.91377    1.000
    N3630    N        0.62745    0.42033    0.94411    1.000
    Si3631   Si       0.59742    0.39273    0.96303    1.000
    Si3632   Si       0.63782    0.41834    0.90149    1.000
    Si3633   Si       0.61456    0.59312    0.07804    1.000
    N3634    N        0.59672    0.55138    0.07963    1.000
    N3635    N        0.62453    0.51979    0.02657    1.000
    Si3636   Si       0.58484    0.53915    0.03773    1.000
    N3637    N        0.63093    0.60308    0.11683    1.000
    Si3638   Si       0.58574    0.52971    0.11638    1.000
    N3639    N        0.61967    0.68147    0.10227    1.000
    Si3640   Si       0.61907    0.68542    0.02004    1.000
    N3641    N        0.58464    0.69434    0.04671    1.000
    Si3642   Si       0.57970    0.69622    0.09027    1.000
    N3643    N        0.60541    0.52875    0.22169    1.000
    Si3644   Si       0.60247    0.59113    0.14826    1.000
    N3645    N        0.61048    0.60532    0.18922    1.000
    N3646    N        0.60648    0.54733    0.15047    1.000
    Si3647   Si       0.62967    0.53334    0.18457    1.000
    N3648    N        0.61065    0.75561    0.24461    1.000
    Si3649   Si       0.59429    0.75740    0.13331    1.000
    N3650    N        0.60398    0.74413    0.17566    1.000
    N3651    N        0.60012    0.67619    0.17023    1.000
    Si3652   Si       0.60227    0.70580    0.20031    1.000
    Si3653   Si       0.58292    0.63869    0.18031    1.000
    Si3654   Si       0.63504    0.68019    0.14238    1.000
    N3655    N        0.61954    0.61298    0.33704    1.000
    Si3656   Si       0.60643    0.52260    0.33228    1.000
    N3657    N        0.60366    0.54003    0.29245    1.000
    Si3658   Si       0.58769    0.59503    0.35928    1.000
    Si3659   Si       0.62917    0.54092    0.25833    1.000
    N3660    N        0.57901    0.55457    0.35192    1.000
    N3661    N        0.63088    0.51054    0.36606    1.000
    Si3662   Si       0.59939    0.63622    0.30422    1.000
    N3663    N        0.61655    0.72816    0.35530    1.000
    Si3664   Si       0.60447    0.70994    0.31762    1.000
    N3665    N        0.58208    0.67294    0.32067    1.000
    N3666    N        0.63109    0.64846    0.27988    1.000
    N3667    N        0.57569    0.73819    0.29907    1.000
    Si3668   Si       0.61801    0.57736    0.43094    1.000
    N3669    N        0.59518    0.60018    0.40241    1.000
    N3670    N        0.58466    0.56786    0.45894    1.000
    Si3671   Si       0.58028    0.60373    0.48430    1.000
    Si3672   Si       0.63718    0.51795    0.46650    1.000
    Si3673   Si       0.58798    0.75472    0.37679    1.000
    N3674    N        0.58637    0.71039    0.44508    1.000
    Si3675   Si       0.59277    0.67630    0.47085    1.000
    Si3676   Si       0.60189    0.75255    0.45134    1.000
    N3677    N        0.63563    0.66840    0.46900    1.000
    Si3678   Si       0.61707    0.61223    0.55053    1.000
    Si3679   Si       0.62004    0.53043    0.56949    1.000
    N3680    N        0.61556    0.61298    0.50671    1.000
    N3681    N        0.62569    0.52464    0.61310    1.000
    N3682    N        0.57734    0.53468    0.56481    1.000
    N3683    N        0.63284    0.57231    0.55626    1.000
    N3684    N        0.62290    0.65625    0.55822    1.000
    Si3685   Si       0.62171    0.73770    0.59195    1.000
    N3686    N        0.61682    0.73003    0.54978    1.000
    Si3687   Si       0.62527    0.69075    0.53159    1.000
    N3688    N        0.58498    0.68553    0.51182    1.000
    N3689    N        0.63310    0.69782    0.61156    1.000
    Si3690   Si       0.63394    0.65732    0.59933    1.000
    N3691    N        0.58914    0.75780    0.61086    1.000
    N3692    N        0.62517    0.59095    0.66012    1.000
    Si3693   Si       0.61339    0.55053    0.64739    1.000
    N3694    N        0.61189    0.58452    0.72557    1.000
    Si3695   Si       0.60717    0.63073    0.66290    1.000
    N3696    N        0.62941    0.53229    0.68203    1.000
    N3697    N        0.58831    0.70758    0.71898    1.000
    N3698    N        0.59889    0.64198    0.62222    1.000
    N3699    N        0.63095    0.66509    0.67889    1.000
    Si3700   Si       0.61703    0.67478    0.71997    1.000
    N3701    N        0.62137    0.73605    0.66408    1.000
    Si3702   Si       0.58799    0.74340    0.68998    1.000
    Si3703   Si       0.60556    0.58025    0.76901    1.000
    N3704    N        0.59815    0.54019    0.78481    1.000
    N3705    N        0.61655    0.52704    0.85158    1.000
    Si3706   Si       0.62884    0.52312    0.81074    1.000
    N3707    N        0.63886    0.59859    0.78678    1.000
    Si3708   Si       0.59184    0.67234    0.85878    1.000
    Si3709   Si       0.58978    0.68291    0.79458    1.000
    N3710    N        0.60370    0.72385    0.78440    1.000
    N3711    N        0.61674    0.66367    0.82499    1.000
    N3712    N        0.60726    0.65941    0.75963    1.000
    Si3713   Si       0.62052    0.73467    0.74545    1.000
    N3714    N        0.60401    0.57127    0.90234    1.000
    Si3715   Si       0.60533    0.58869    0.98433    1.000
    N3716    N        0.61685    0.55085    0.96774    1.000
    Si3717   Si       0.59263    0.54341    0.93424    1.000
    N3718    N        0.58585    0.61103    0.95441    1.000
    Si3719   Si       0.59985    0.61369    0.91154    1.000
    N3720    N        0.60378    0.74043    0.94382    1.000
    N3721    N        0.60748    0.66835    0.98154    1.000
    N3722    N        0.60977    0.69268    0.89086    1.000
    Si3723   Si       0.61920    0.74978    0.98140    1.000
    Si3724   Si       0.63085    0.72000    0.91598    1.000
    Si3725   Si       0.59219    0.80462    0.02921    1.000
    N3726    N        0.58572    0.76956    0.00127    1.000
    Si3727   Si       0.62393    0.79988    0.08421    1.000
    N3728    N        0.58901    0.84195    0.01120    1.000
    N3729    N        0.58050    0.79983    0.07236    1.000
    N3730    N        0.62860    0.76272    0.10632    1.000
    N3731    N        0.62840    0.83747    0.10526    1.000
    N3732    N        0.63300    0.79783    0.04179    1.000
    N3733    N        0.59941    0.91223    0.01027    1.000
    Si3734   Si       0.60886    0.94994    0.10078    1.000
    N3735    N        0.61118    0.90605    0.10352    1.000
    N3736    N        0.62321    0.95209    0.05903    1.000
    N3737    N        0.61074    0.98249    0.00407    1.000
    Si3738   Si       0.63554    0.98817    0.03985    1.000
    Si3739   Si       0.57969    0.95138    0.01062    1.000
    N3740    N        0.58332    0.79776    0.14633    1.000
    Si3741   Si       0.60675    0.77525    0.20641    1.000
    Si3742   Si       0.59484    0.83764    0.13446    1.000
    N3743    N        0.60304    0.85457    0.17547    1.000
    Si3744   Si       0.63113    0.84447    0.20590    1.000
    N3745    N        0.63473    0.98296    0.19911    1.000
    Si3746   Si       0.60240    0.95804    0.21227    1.000
    Si3747   Si       0.59613    0.89467    0.24262    1.000
    N3748    N        0.62169    0.91862    0.21657    1.000
    N3749    N        0.63090    0.98339    0.12589    1.000
    N3750    N        0.59391    0.85423    0.31440    1.000
    Si3751   Si       0.62523    0.84151    0.28545    1.000
    N3752    N        0.63689    0.79998    0.29491    1.000
    N3753    N        0.61705    0.85632    0.24547    1.000
    N3754    N        0.59452    0.97250    0.32379    1.000
    N3755    N        0.59483    0.91223    0.28291    1.000
    Si3756   Si       0.60266    0.95361    0.28415    1.000
    N3757    N        0.58428    0.97166    0.24922    1.000
    Si3758   Si       0.63106    0.98258    0.34657    1.000
    Si3759   Si       0.62119    0.85689    0.39177    1.000
    N3760    N        0.62284    0.86182    0.43454    1.000
    N3761    N        0.60919    0.76968    0.41251    1.000
    N3762    N        0.57838    0.76273    0.48705    1.000
    N3763    N        0.57997    0.84591    0.38751    1.000
    Si3764   Si       0.61868    0.95913    0.49498    1.000
    Si3765   Si       0.60038    0.92846    0.38259    1.000
    Si3766   Si       0.60219    0.89720    0.45142    1.000
    N3767    N        0.61672    0.97310    0.38769    1.000
    N3768    N        0.58447    0.97341    0.46773    1.000
    N3769    N        0.63161    0.89721    0.37810    1.000
    N3770    N        0.58484    0.92367    0.42151    1.000
    N3771    N        0.62320    0.91540    0.48481    1.000
    Si3772   Si       0.58594    0.00381    0.40018    1.000
    N3773    N        0.60068    0.79797    0.54432    1.000
    N3774    N        0.59402    0.85999    0.58173    1.000
    N3775    N        0.61716    0.85359    0.50265    1.000
    Si3776   Si       0.63247    0.81987    0.52581    1.000
    Si3777   Si       0.58829    0.75779    0.52960    1.000
    Si3778   Si       0.61705    0.88925    0.60775    1.000
    N3779    N        0.59210    0.96821    0.53250    1.000
    Si3780   Si       0.62173    0.96904    0.59882    1.000
    N3781    N        0.62762    0.92845    0.58521    1.000
    N3782    N        0.57834    0.97277    0.59634    1.000
    Si3783   Si       0.60840    0.00692    0.54254    1.000
    N3784    N        0.58709    0.78976    0.66354    1.000
    Si3785   Si       0.62521    0.80707    0.70501    1.000
    N3786    N        0.60399    0.77027    0.72280    1.000
    N3787    N        0.60064    0.84311    0.70480    1.000
    Si3788   Si       0.62318    0.77307    0.64267    1.000
    Si3789   Si       0.59729    0.95825    0.70724    1.000
    Si3790   Si       0.62987    0.98669    0.66333    1.000
    N3791    N        0.59015    0.96739    0.66560    1.000
    N3792    N        0.62539    0.88944    0.65065    1.000
    N3793    N        0.58836    0.91551    0.71388    1.000
    Si3794   Si       0.61150    0.88555    0.69242    1.000
    N3795    N        0.57762    0.97998    0.73944    1.000
    N3796    N        0.61758    0.87424    0.76752    1.000
    N3797    N        0.59411    0.83103    0.84433    1.000
    Si3798   Si       0.59116    0.80058    0.81083    1.000
    N3799    N        0.63255    0.78405    0.81527    1.000
    Si3800   Si       0.58687    0.85134    0.74692    1.000
    Si3801   Si       0.63453    0.83644    0.86337    1.000
    N3802    N        0.58370    0.81365    0.76744    1.000
    Si3803   Si       0.61636    0.91406    0.78564    1.000
    Si3804   Si       0.60292    0.90475    0.86199    1.000
    N3805    N        0.62675    0.91663    0.82729    1.000
    N3806    N        0.59323    0.80711    0.93582    1.000
    N3807    N        0.58944    0.87512    0.94853    1.000
    N3808    N        0.62558    0.87444    0.88361    1.000
    Si3809   Si       0.62537    0.87931    0.92632    1.000
    Si3810   Si       0.57924    0.87869    0.99214    1.000
    Si3811   Si       0.57720    0.76976    0.91968    1.000
    N3812    N        0.58693    0.75982    0.87934    1.000
    N3813    N        0.59943    0.93685    0.88989    1.000
    N3814    N        0.62962    0.98366    0.93454    1.000
    N3815    N        0.58793    0.00404    0.87541    1.000
    Si3816   Si       0.59724    0.98447    0.96303    1.000
    Si3817   Si       0.67607    0.03228    0.06058    1.000
    N3818    N        0.65137    0.12439    0.10135    1.000
    N3819    N        0.69377    0.02328    0.09917    1.000
    N3820    N        0.67952    0.11445    0.99489    1.000
    Si3821   Si       0.64487    0.23020    0.09816    1.000
    N3822    N        0.65338    0.18727    0.09003    1.000
    Si3823   Si       0.66142    0.15253    0.00767    1.000
    N3824    N        0.68850    0.23806    0.08541    1.000
    N3825    N        0.68657    0.17597    0.03270    1.000
    Si3826   Si       0.67096    0.15700    0.12247    1.000
    Si3827   Si       0.65650    0.01948    0.20938    1.000
    N3828    N        0.68419    0.09446    0.22735    1.000
    Si3829   Si       0.67993    0.04235    0.13727    1.000
    N3830    N        0.68031    0.01351    0.17144    1.000
    Si3831   Si       0.64538    0.09575    0.20497    1.000
    N3832    N        0.67906    0.02691    0.24521    1.000
    N3833    N        0.64010    0.05472    0.12807    1.000
    Si3834   Si       0.69484    0.16360    0.18995    1.000
    Si3835   Si       0.67891    0.25794    0.22933    1.000
    N3836    N        0.64609    0.17772    0.15507    1.000
    Si3837   Si       0.65798    0.21845    0.16790    1.000
    N3838    N        0.66213    0.16076    0.21605    1.000
    N3839    N        0.65047    0.23211    0.20859    1.000
    N3840    N        0.64069    0.24524    0.13960    1.000
    N3841    N        0.64397    0.02347    0.34181    1.000
    Si3842   Si       0.68594    0.03092    0.32979    1.000
    N3843    N        0.65549    0.10752    0.28696    1.000
    Si3844   Si       0.68698    0.12308    0.31138    1.000
    N3845    N        0.69222    0.10204    0.34858    1.000
    Si3846   Si       0.67162    0.07283    0.26482    1.000
    N3847    N        0.65646    0.22096    0.32984    1.000
    N3848    N        0.68975    0.24671    0.26939    1.000
    Si3849   Si       0.69239    0.20159    0.34208    1.000
    Si3850   Si       0.64115    0.24286    0.36805    1.000
    Si3851   Si       0.66883    0.25650    0.30822    1.000
    Si3852   Si       0.66515    0.10380    0.38386    1.000
    Si3853   Si       0.64865    0.04489    0.42341    1.000
    N3854    N        0.66514    0.06024    0.45996    1.000
    N3855    N        0.67469    0.01301    0.41253    1.000
    Si3856   Si       0.69401    0.09119    0.45148    1.000
    N3857    N        0.63558    0.07344    0.38932    1.000
    N3858    N        0.69089    0.13299    0.46298    1.000
    Si3859   Si       0.66084    0.03889    0.49783    1.000
    Si3860   Si       0.66852    0.22482    0.42107    1.000
    N3861    N        0.65378    0.14217    0.39755    1.000
    N3862    N        0.65356    0.19132    0.44559    1.000
    Si3863   Si       0.65738    0.14894    0.43994    1.000
    N3864    N        0.66472    0.06374    0.53241    1.000
    N3865    N        0.68220    0.04708    0.60761    1.000
    Si3866   Si       0.68989    0.05911    0.56686    1.000
    N3867    N        0.66077    0.13146    0.54703    1.000
    N3868    N        0.69014    0.00824    0.49615    1.000
    Si3869   Si       0.63796    0.23679    0.58861    1.000
    Si3870   Si       0.67383    0.23534    0.52605    1.000
    Si3871   Si       0.65192    0.17200    0.53745    1.000
    N3872    N        0.68910    0.19511    0.53035    1.000
    N3873    N        0.64774    0.14192    0.61365    1.000
    N3874    N        0.66739    0.25783    0.56247    1.000
    N3875    N        0.64482    0.08844    0.64702    1.000
    N3876    N        0.68396    0.06302    0.68647    1.000
    Si3877   Si       0.65031    0.09347    0.68962    1.000
    Si3878   Si       0.68641    0.07145    0.64341    1.000
    N3879    N        0.65754    0.13134    0.71112    1.000
    N3880    N        0.68784    0.17427    0.66080    1.000
    Si3881   Si       0.68960    0.14677    0.62645    1.000
    N3882    N        0.65296    0.22722    0.63133    1.000
    Si3883   Si       0.66540    0.17125    0.69784    1.000
    N3884    N        0.69077    0.19072    0.72808    1.000
    Si3885   Si       0.69321    0.21315    0.64123    1.000
    Si3886   Si       0.64419    0.05907    0.78693    1.000
    N3887    N        0.68701    0.06433    0.77995    1.000
    Si3888   Si       0.64733    0.12913    0.75444    1.000
    N3889    N        0.67828    0.13251    0.78245    1.000
    N3890    N        0.66352    0.19632    0.79382    1.000
    N3891    N        0.68077    0.14866    0.84830    1.000
    N3892    N        0.68332    0.24928    0.77582    1.000
    Si3893   Si       0.64364    0.23482    0.78607    1.000
    Si3894   Si       0.68658    0.16508    0.80952    1.000
    Si3895   Si       0.64270    0.15171    0.86582    1.000
    N3896    N        0.66688    0.22873    0.86877    1.000
    Si3897   Si       0.64426    0.08601    0.90037    1.000
    N3898    N        0.66043    0.04922    0.97072    1.000
    Si3899   Si       0.64832    0.09033    0.97716    1.000
    Si3900   Si       0.64738    0.02474    0.93566    1.000
    N3901    N        0.64417    0.11000    0.93752    1.000
    N3902    N        0.68590    0.08753    0.88780    1.000
    N3903    N        0.68768    0.02320    0.92042    1.000
    N3904    N        0.64429    0.17343    0.97359    1.000
    N3905    N        0.66356    0.23213    0.93582    1.000
    Si3906   Si       0.67445    0.20262    0.90364    1.000
    Si3907   Si       0.65747    0.21528    0.97573    1.000
    N3908    N        0.64621    0.17044    0.90521    1.000
    N3909    N        0.68472    0.31392    0.09517    1.000
    N3910    N        0.64479    0.28202    0.06181    1.000
    Si3911   Si       0.68862    0.27754    0.06890    1.000
    Si3912   Si       0.64089    0.31909    0.08937    1.000
    N3913    N        0.64106    0.35821    0.11293    1.000
    N3914    N        0.64792    0.30959    0.99720    1.000
    N3915    N        0.69749    0.34720    0.99485    1.000
    Si3916   Si       0.69314    0.30454    0.99713    1.000
    Si3917   Si       0.68398    0.42155    0.03835    1.000
    Si3918   Si       0.68178    0.48096    0.07971    1.000
    N3919    N        0.65210    0.39824    0.05527    1.000
    Si3920   Si       0.65391    0.39853    0.09787    1.000
    N3921    N        0.64178    0.46791    0.07028    1.000
    N3922    N        0.69681    0.40901    0.10603    1.000
    Si3923   Si       0.67879    0.31160    0.19851    1.000
    N3924    N        0.65525    0.29638    0.23169    1.000
    N3925    N        0.65468    0.31418    0.16494    1.000
    Si3926   Si       0.64304    0.35529    0.15578    1.000
    N3927    N        0.64928    0.37447    0.24294    1.000
    Si3928   Si       0.69285    0.36932    0.24215    1.000
    N3929    N        0.64531    0.49239    0.18623    1.000
    N3930    N        0.69483    0.40917    0.22679    1.000
    N3931    N        0.66933    0.47630    0.12214    1.000
    N3932    N        0.66788    0.38920    0.16575    1.000
    Si3933   Si       0.65669    0.40266    0.20666    1.000
    Si3934   Si       0.68133    0.48835    0.16164    1.000
    Si3935   Si       0.66618    0.31818    0.35886    1.000
    N3936    N        0.67719    0.27813    0.34618    1.000
    N3937    N        0.63604    0.28116    0.29356    1.000
    N3938    N        0.65384    0.38759    0.31125    1.000
    Si3939   Si       0.67837    0.48879    0.26592    1.000
    N3940    N        0.66604    0.46833    0.30510    1.000
    Si3941   Si       0.69086    0.45168    0.33554    1.000
    Si3942   Si       0.64457    0.30185    0.42785    1.000
    N3943    N        0.67119    0.32651    0.40011    1.000
    N3944    N        0.64680    0.29975    0.46935    1.000
    N3945    N        0.64718    0.26167    0.40925    1.000
    N3946    N        0.65029    0.36983    0.49206    1.000
    Si3947   Si       0.69290    0.42985    0.40612    1.000
    Si3948   Si       0.65309    0.45234    0.45995    1.000
    N3949    N        0.67262    0.49021    0.47163    1.000
    Si3950   Si       0.68576    0.38645    0.47262    1.000
    N3951    N        0.68085    0.42189    0.44685    1.000
    N3952    N        0.66720    0.44542    0.37261    1.000
    N3953    N        0.66522    0.32086    0.57486    1.000
    Si3954   Si       0.64737    0.32790    0.50255    1.000
    Si3955   Si       0.69537    0.32328    0.60607    1.000
    N3956    N        0.69122    0.32215    0.51618    1.000
    Si3957   Si       0.69475    0.29227    0.54789    1.000
    N3958    N        0.65543    0.40707    0.55303    1.000
    Si3959   Si       0.65994    0.47883    0.55814    1.000
    N3960    N        0.64593    0.46364    0.59524    1.000
    Si3961   Si       0.64267    0.42059    0.59430    1.000
    Si3962   Si       0.68066    0.30876    0.71684    1.000
    N3963    N        0.66130    0.27777    0.69403    1.000
    N3964    N        0.67935    0.29435    0.63712    1.000
    N3965    N        0.67481    0.34388    0.69300    1.000
    Si3966   Si       0.66400    0.42585    0.66594    1.000
    Si3967   Si       0.64988    0.49071    0.63046    1.000
    N3968    N        0.69199    0.50236    0.62809    1.000
    N3969    N        0.66102    0.47866    0.73045    1.000
    N3970    N        0.67161    0.41214    0.62524    1.000
    N3971    N        0.66999    0.29568    0.82818    1.000
    Si3972   Si       0.65243    0.33475    0.83898    1.000
    N3973    N        0.66733    0.31494    0.75731    1.000
    Si3974   Si       0.68640    0.29151    0.78760    1.000
    Si3975   Si       0.68352    0.26853    0.85881    1.000
    N3976    N        0.69011    0.35476    0.84808    1.000
    N3977    N        0.63893    0.35778    0.80357    1.000
    N3978    N        0.68242    0.41524    0.81580    1.000
    Si3979   Si       0.65590    0.46185    0.77008    1.000
    Si3980   Si       0.64271    0.40163    0.80056    1.000
    N3981    N        0.64579    0.41956    0.75989    1.000
    N3982    N        0.65952    0.34093    0.93646    1.000
    N3983    N        0.67486    0.28788    0.89736    1.000
    Si3984   Si       0.65562    0.34828    0.97889    1.000
    Si3985   Si       0.69277    0.31561    0.92745    1.000
    Si3986   Si       0.64104    0.26311    0.91224    1.000
    Si3987   Si       0.64382    0.49632    0.91991    1.000
    N3988    N        0.64742    0.48915    0.96171    1.000
    N3989    N        0.67808    0.43102    0.99453    1.000
    Si3990   Si       0.69003    0.44567    0.89340    1.000
    Si3991   Si       0.64148    0.44667    0.97564    1.000
    N3992    N        0.67922    0.40440    0.89321    1.000
    N3993    N        0.64960    0.46094    0.89620    1.000
    Si3994   Si       0.66000    0.54361    0.04323    1.000
    N3995    N        0.68644    0.52357    0.07161    1.000
    N3996    N        0.65159    0.58805    0.04821    1.000
    N3997    N        0.67972    0.54078    0.00469    1.000
    Si3998   Si       0.66571    0.61979    0.01909    1.000
    Si3999   Si       0.65285    0.67384    0.07547    1.000
    N4000    N        0.66789    0.71455    0.06709    1.000
    Si4001   Si       0.66452    0.73729    0.10622    1.000
    N4002    N        0.68236    0.65363    0.10151    1.000
    Si4003   Si       0.67910    0.73014    0.02768    1.000
    N4004    N        0.64563    0.65465    0.03778    1.000
    N4005    N        0.63882    0.72343    0.00887    1.000
    Si4006   Si       0.66916    0.62266    0.12916    1.000
    N4007    N        0.66160    0.56115    0.19229    1.000
    N4008    N        0.67524    0.62418    0.22702    1.000
    Si4009   Si       0.64470    0.59564    0.21272    1.000
    N4010    N        0.69415    0.58964    0.13791    1.000
    N4011    N        0.66443    0.71276    0.14047    1.000
    N4012    N        0.65752    0.64868    0.16213    1.000
    Si4013   Si       0.66565    0.65875    0.20232    1.000
    N4014    N        0.63736    0.68775    0.22256    1.000
    Si4015   Si       0.65994    0.60748    0.35002    1.000
    N4016    N        0.68097    0.61206    0.30931    1.000
    N4017    N        0.66892    0.53126    0.27137    1.000
    Si4018   Si       0.66004    0.61620    0.27180    1.000
    N4019    N        0.63290    0.58383    0.25404    1.000
    Si4020   Si       0.64925    0.68849    0.26417    1.000
    N4021    N        0.68489    0.69441    0.34834    1.000
    N4022    N        0.63926    0.71932    0.29186    1.000
    N4023    N        0.68003    0.75861    0.25277    1.000
    Si4024   Si       0.65723    0.72171    0.36943    1.000
    Si4025   Si       0.64016    0.76141    0.27521    1.000
    N4026    N        0.66250    0.57507    0.37989    1.000
    Si4027   Si       0.65772    0.53408    0.39135    1.000
    Si4028   Si       0.67976    0.60234    0.41138    1.000
    N4029    N        0.64945    0.60405    0.44292    1.000
    Si4030   Si       0.64632    0.62780    0.47930    1.000
    N4031    N        0.66147    0.54587    0.49367    1.000
    N4032    N        0.63671    0.53687    0.42761    1.000
    N4033    N        0.68255    0.63197    0.37766    1.000
    Si4034   Si       0.69694    0.52491    0.48033    1.000
    N4035    N        0.64236    0.74021    0.46653    1.000
    Si4036   Si       0.65207    0.70107    0.44919    1.000
    N4037    N        0.65732    0.69436    0.40514    1.000
    Si4038   Si       0.69108    0.67204    0.38372    1.000
    N4039    N        0.69382    0.69668    0.46004    1.000
    Si4040   Si       0.66760    0.55575    0.53577    1.000
    N4041    N        0.67437    0.52205    0.56432    1.000
    N4042    N        0.66470    0.62615    0.59617    1.000
    N4043    N        0.68493    0.63151    0.49827    1.000
    N4044    N        0.66884    0.69377    0.52546    1.000
    Si4045   Si       0.69317    0.72684    0.54024    1.000
    Si4046   Si       0.69602    0.67367    0.49603    1.000
    Si4047   Si       0.64183    0.57371    0.69641    1.000
    N4048    N        0.68708    0.57613    0.70622    1.000
    N4049    N        0.64974    0.70280    0.73074    1.000
    Si4050   Si       0.64241    0.70015    0.65397    1.000
    N4051    N        0.66267    0.63715    0.72930    1.000
    Si4052   Si       0.67819    0.67421    0.70359    1.000
    N4053    N        0.68241    0.70283    0.66755    1.000
    N4054    N        0.69337    0.75602    0.71672    1.000
    N4055    N        0.66988    0.53919    0.80501    1.000
    Si4056   Si       0.66784    0.58260    0.81737    1.000
    N4057    N        0.65477    0.58559    0.85763    1.000
    Si4058   Si       0.64364    0.63804    0.76953    1.000
    N4059    N        0.67450    0.65689    0.79163    1.000
    N4060    N        0.66224    0.71487    0.82783    1.000
    Si4061   Si       0.65920    0.67247    0.82882    1.000
    N4062    N        0.68298    0.65252    0.86126    1.000
    N4063    N        0.65691    0.74928    0.76692    1.000
    Si4064   Si       0.68866    0.72404    0.74874    1.000
    Si4065   Si       0.63644    0.74182    0.80511    1.000
    N4066    N        0.66685    0.53089    0.90458    1.000
    Si4067   Si       0.66930    0.61688    0.88468    1.000
    Si4068   Si       0.64291    0.52456    0.98759    1.000
    N4069    N        0.64335    0.61063    0.98601    1.000
    N4070    N        0.64007    0.63035    0.91848    1.000
    Si4071   Si       0.63753    0.55335    0.87999    1.000
    Si4072   Si       0.69301    0.69537    0.95987    1.000
    N4073    N        0.68797    0.65540    0.97454    1.000
    N4074    N        0.66492    0.73920    0.89858    1.000
    N4075    N        0.65398    0.69296    0.94200    1.000
    Si4076   Si       0.64344    0.64866    0.95984    1.000
    Si4077   Si       0.66386    0.79587    0.01091    1.000
    Si4078   Si       0.68506    0.85802    0.04490    1.000
    N4079    N        0.68232    0.83596    0.00623    1.000
    Si4080   Si       0.64096    0.87741    0.09491    1.000
    N4081    N        0.69117    0.77040    0.03322    1.000
    N4082    N        0.69238    0.82744    0.07417    1.000
    N4083    N        0.68008    0.88345    0.11526    1.000
    N4084    N        0.65157    0.88273    0.05251    1.000
    N4085    N        0.68043    0.99324    0.04188    1.000
    N4086    N        0.66880    0.93892    0.00578    1.000
    Si4087   Si       0.63853    0.91742    0.03047    1.000
    N4088    N        0.64188    0.80119    0.20766    1.000
    Si4089   Si       0.67855    0.77931    0.21405    1.000
    N4090    N        0.66610    0.86988    0.19639    1.000
    Si4091   Si       0.66119    0.91363    0.19899    1.000
    N4092    N        0.67152    0.93613    0.16093    1.000
    Si4093   Si       0.65606    0.97609    0.16156    1.000
    N4094    N        0.66087    0.85687    0.30909    1.000
    Si4095   Si       0.65578    0.81832    0.33049    1.000
    N4096    N        0.64037    0.82208    0.37047    1.000
    N4097    N        0.65799    0.94971    0.34136    1.000
    Si4098   Si       0.67643    0.95768    0.30245    1.000
    N4099    N        0.64245    0.96501    0.27838    1.000
    Si4100   Si       0.66841    0.91883    0.37050    1.000
    Si4101   Si       0.66924    0.76830    0.48251    1.000
    N4102    N        0.67059    0.81095    0.42868    1.000
    Si4103   Si       0.64751    0.78956    0.39883    1.000
    Si4104   Si       0.64932    0.83695    0.45933    1.000
    N4105    N        0.67841    0.86488    0.48176    1.000
    N4106    N        0.64375    0.80217    0.48724    1.000
    N4107    N        0.67371    0.76048    0.38176    1.000
    N4108    N        0.64861    0.96953    0.45916    1.000
    Si4109   Si       0.68245    0.96660    0.48620    1.000
    N4110    N        0.67908    0.93866    0.40750    1.000
    Si4111   Si       0.65217    0.97384    0.41848    1.000
    N4112    N        0.66592    0.82749    0.55025    1.000
    Si4113   Si       0.68067    0.86428    0.56896    1.000
    N4114    N        0.67930    0.76455    0.52580    1.000
    N4115    N        0.65753    0.87343    0.60248    1.000
    N4116    N        0.65187    0.76485    0.60915    1.000
    Si4117   Si       0.69632    0.76056    0.60694    1.000
    Si4118   Si       0.64750    0.88486    0.50398    1.000
    N4119    N        0.66948    0.89558    0.54035    1.000
    Si4120   Si       0.66125    0.93437    0.55621    1.000
    N4121    N        0.65555    0.95813    0.52252    1.000
    Si4122   Si       0.68765    0.79588    0.73495    1.000
    Si4123   Si       0.69278    0.80855    0.66264    1.000
    N4124    N        0.64860    0.80390    0.66859    1.000
    N4125    N        0.65083    0.82104    0.73647    1.000
    Si4126   Si       0.67050    0.88064    0.64330    1.000
    Si4127   Si       0.65529    0.86401    0.74595    1.000
    Si4128   Si       0.65882    0.93496    0.72561    1.000
    Si4129   Si       0.69021    0.95326    0.62259    1.000
    N4130    N        0.64910    0.89396    0.71233    1.000
    N4131    N        0.65100    0.96902    0.63111    1.000
    N4132    N        0.64042    0.96605    0.70092    1.000
    N4133    N        0.66341    0.83937    0.83231    1.000
    Si4134   Si       0.67391    0.80154    0.81376    1.000
    N4135    N        0.69272    0.77534    0.84283    1.000
    N4136    N        0.69509    0.87020    0.75979    1.000
    N4137    N        0.64164    0.94532    0.76516    1.000
    N4138    N        0.66287    0.97931    0.81947    1.000
    Si4139   Si       0.66204    0.93992    0.83715    1.000
    Si4140   Si       0.65934    0.98408    0.77604    1.000
    N4141    N        0.65390    0.84889    0.94494    1.000
    Si4142   Si       0.67928    0.77772    0.88439    1.000
    N4143    N        0.64964    0.80807    0.89338    1.000
    N4144    N        0.64941    0.78161    0.97211    1.000
    Si4145   Si       0.69082    0.85208    0.96760    1.000
    Si4146   Si       0.63716    0.80778    0.93782    1.000
    Si4147   Si       0.63424    0.94786    0.91160    1.000
    N4148    N        0.66667    0.94491    0.88027    1.000
    N4149    N        0.64534    0.91577    0.93913    1.000
    Si4150   Si       0.67856    0.92649    0.96411    1.000
    Si4151   Si       0.71362    0.09192    0.01233    1.000
    N4152    N        0.75069    0.11396    0.02197    1.000
    N4153    N        0.74188    0.07448    0.08713    1.000
    N4154    N        0.69212    0.05838    0.03059    1.000
    N4155    N        0.71314    0.16707    0.09691    1.000
    Si4156   Si       0.71926    0.19472    0.01159    1.000
    N4157    N        0.73817    0.21027    0.04811    1.000
    Si4158   Si       0.69608    0.19605    0.07116    1.000
    Si4159   Si       0.72616    0.01832    0.17085    1.000
    N4160    N        0.71906    0.05616    0.14740    1.000
    Si4161   Si       0.72238    0.11663    0.23776    1.000
    N4162    N        0.74957    0.08340    0.23834    1.000
    N4163    N        0.74636    0.01893    0.20816    1.000
    Si4164   Si       0.73653    0.15534    0.13068    1.000
    N4165    N        0.70079    0.20342    0.17474    1.000
    N4166    N        0.70053    0.14168    0.15279    1.000
    N4167    N        0.72897    0.15279    0.21642    1.000
    Si4168   Si       0.73903    0.22066    0.16794    1.000
    N4169    N        0.75108    0.25714    0.14684    1.000
    N4170    N        0.71379    0.03663    0.36218    1.000
    N4171    N        0.72264    0.12448    0.28173    1.000
    Si4172   Si       0.74292    0.07195    0.28334    1.000
    N4173    N        0.70216    0.05813    0.29505    1.000
    N4174    N        0.75366    0.02769    0.27986    1.000
    Si4175   Si       0.71297    0.01278    0.27470    1.000
    N4176    N        0.72237    0.22930    0.32661    1.000
    Si4177   Si       0.73631    0.16014    0.30169    1.000
    Si4178   Si       0.72916    0.23220    0.28390    1.000
    N4179    N        0.74144    0.19209    0.27089    1.000
    N4180    N        0.69587    0.16516    0.32010    1.000
    Si4181   Si       0.72127    0.07906    0.37176    1.000
    N4182    N        0.75278    0.02600    0.49296    1.000
    N4183    N        0.69850    0.08720    0.40774    1.000
    N4184    N        0.72968    0.08745    0.47772    1.000
    Si4185   Si       0.71767    0.01539    0.39898    1.000
    N4186    N        0.74911    0.04037    0.41744    1.000
    Si4187   Si       0.72890    0.13052    0.48174    1.000
    Si4188   Si       0.72804    0.25343    0.47998    1.000
    Si4189   Si       0.72862    0.22937    0.41052    1.000
    N4190    N        0.74649    0.21346    0.48698    1.000
    N4191    N        0.70278    0.24040    0.44580    1.000
    N4192    N        0.69608    0.21380    0.38480    1.000
    N4193    N        0.71537    0.09376    0.56924    1.000
    N4194    N        0.71707    0.02528    0.55684    1.000
    Si4195   Si       0.72899    0.01549    0.59814    1.000
    N4196    N        0.75860    0.20262    0.55541    1.000
    Si4197   Si       0.70595    0.13329    0.55817    1.000
    Si4198   Si       0.74693    0.18714    0.59363    1.000
    N4199    N        0.71679    0.15686    0.59355    1.000
    N4200    N        0.72943    0.14495    0.52310    1.000
    Si4201   Si       0.73182    0.19016    0.52243    1.000
    N4202    N        0.72117    0.22120    0.60964    1.000
    N4203    N        0.75187    0.12372    0.70811    1.000
    N4204    N        0.74929    0.06424    0.67188    1.000
    N4205    N        0.73952    0.05955    0.73780    1.000
    Si4206   Si       0.74200    0.10719    0.66871    1.000
    N4207    N        0.70583    0.11032    0.64345    1.000
    Si4208   Si       0.72227    0.04681    0.70010    1.000
    Si4209   Si       0.72507    0.20954    0.70564    1.000
    N4210    N        0.71053    0.23494    0.67435    1.000
    N4211    N        0.74087    0.23315    0.74165    1.000
    N4212    N        0.72251    0.09150    0.83138    1.000
    Si4213   Si       0.72010    0.03869    0.77137    1.000
    Si4214   Si       0.70785    0.10177    0.79104    1.000
    N4215    N        0.74516    0.11732    0.77392    1.000
    Si4216   Si       0.70654    0.11677    0.86344    1.000
    N4217    N        0.73406    0.03111    0.86497    1.000
    Si4218   Si       0.75096    0.05932    0.83642    1.000
    N4219    N        0.72482    0.18074    0.79237    1.000
    Si4220   Si       0.70160    0.20962    0.76689    1.000
    Si4221   Si       0.71165    0.05203    0.89764    1.000
    N4222    N        0.72914    0.06722    0.98034    1.000
    N4223    N        0.74534    0.07181    0.91506    1.000
    Si4224   Si       0.69788    0.03977    0.99152    1.000
    N4225    N        0.69805    0.22168    0.98708    1.000
    N4226    N        0.71314    0.18805    0.91360    1.000
    N4227    N        0.74815    0.23908    0.94187    1.000
    N4228    N        0.74397    0.13752    0.87614    1.000
    Si4229   Si       0.74938    0.17556    0.89533    1.000
    N4230    N        0.74945    0.17696    0.98626    1.000
    Si4231   Si       0.70705    0.24761    0.95257    1.000
    N4232    N        0.71035    0.28646    0.03236    1.000
    Si4233   Si       0.72955    0.37025    0.00896    1.000
    Si4234   Si       0.72525    0.32539    0.11067    1.000
    N4235    N        0.74610    0.29413    0.08472    1.000
    N4236    N        0.74812    0.35886    0.09743    1.000
    Si4237   Si       0.75195    0.29808    0.04115    1.000
    N4238    N        0.72021    0.39743    0.04205    1.000
    Si4239   Si       0.73372    0.39675    0.08324    1.000
    Si4240   Si       0.73945    0.47638    0.02894    1.000
    N4241    N        0.70476    0.46014    0.04886    1.000
    N4242    N        0.74395    0.50244    0.09727    1.000
    N4243    N        0.73453    0.32453    0.15398    1.000
    Si4244   Si       0.73751    0.28881    0.17417    1.000
    Si4245   Si       0.73688    0.35682    0.18253    1.000
    N4246    N        0.70248    0.27383    0.19592    1.000
    N4247    N        0.70288    0.34598    0.20798    1.000
    N4248    N        0.71232    0.47753    0.24141    1.000
    N4249    N        0.70259    0.45072    0.17403    1.000
    N4250    N        0.73756    0.39286    0.15908    1.000
    Si4251   Si       0.71757    0.44423    0.21395    1.000
    Si4252   Si       0.70112    0.41476    0.14824    1.000
    N4253    N        0.71337    0.36476    0.27956    1.000
    Si4254   Si       0.74057    0.33468    0.35070    1.000
    Si4255   Si       0.71967    0.26618    0.35101    1.000
    N4256    N        0.74473    0.29636    0.33082    1.000
    N4257    N        0.69943    0.34437    0.34293    1.000
    Si4258   Si       0.69482    0.37972    0.31534    1.000
    N4259    N        0.71429    0.41810    0.32168    1.000
    N4260    N        0.72573    0.47514    0.34320    1.000
    Si4261   Si       0.74793    0.44507    0.32022    1.000
    Si4262   Si       0.75257    0.48843    0.25523    1.000
    N4263    N        0.74670    0.33399    0.39580    1.000
    N4264    N        0.73609    0.26783    0.39302    1.000
    N4265    N        0.74074    0.29207    0.46332    1.000
    Si4266   Si       0.70730    0.35097    0.40864    1.000
    Si4267   Si       0.72262    0.32807    0.48365    1.000
    N4268    N        0.70596    0.35345    0.45341    1.000
    Si4269   Si       0.75387    0.29687    0.42002    1.000
    N4270    N        0.72836    0.45516    0.40661    1.000
    N4271    N        0.70527    0.39128    0.39315    1.000
    Si4272   Si       0.72876    0.49269    0.38240    1.000
    N4273    N        0.72467    0.30149    0.57929    1.000
    Si4274   Si       0.73418    0.26247    0.60441    1.000
    N4275    N        0.75519    0.35270    0.49420    1.000
    N4276    N        0.70995    0.26140    0.51850    1.000
    N4277    N        0.72303    0.40007    0.57487    1.000
    Si4278   Si       0.73250    0.48801    0.53711    1.000
    N4279    N        0.70955    0.40175    0.50586    1.000
    Si4280   Si       0.71245    0.39761    0.61609    1.000
    N4281    N        0.69785    0.46112    0.54247    1.000
    Si4282   Si       0.69720    0.41829    0.54480    1.000
    Si4283   Si       0.75058    0.39693    0.49383    1.000
    N4284    N        0.70907    0.35748    0.63068    1.000
    N4285    N        0.74430    0.28254    0.64245    1.000
    Si4286   Si       0.70746    0.36551    0.67383    1.000
    N4287    N        0.72129    0.29553    0.70722    1.000
    Si4288   Si       0.70894    0.27742    0.66921    1.000
    N4289    N        0.74819    0.35620    0.68577    1.000
    Si4290   Si       0.73664    0.27507    0.74421    1.000
    N4291    N        0.72866    0.43629    0.74389    1.000
    N4292    N        0.74820    0.41122    0.63609    1.000
    Si4293   Si       0.73094    0.43261    0.70067    1.000
    Si4294   Si       0.70692    0.47730    0.73792    1.000
    Si4295   Si       0.72609    0.49916    0.65714    1.000
    N4296    N        0.69898    0.40753    0.68662    1.000
    N4297    N        0.71965    0.47395    0.69267    1.000
    N4298    N        0.72941    0.29974    0.78031    1.000
    N4299    N        0.73640    0.37366    0.78580    1.000
    N4300    N        0.72561    0.26321    0.85290    1.000
    Si4301   Si       0.75505    0.33279    0.79197    1.000
    Si4302   Si       0.71296    0.38391    0.82174    1.000
    N4303    N        0.73908    0.39110    0.85746    1.000
    N4304    N        0.71255    0.46495    0.86142    1.000
    Si4305   Si       0.70738    0.45160    0.81912    1.000
    Si4306   Si       0.75335    0.41129    0.77147    1.000
    N4307    N        0.75034    0.43967    0.80536    1.000
    N4308    N        0.69544    0.47686    0.78640    1.000
    Si4309   Si       0.70635    0.37435    0.88371    1.000
    N4310    N        0.72185    0.34315    0.91015    1.000
    N4311    N        0.70291    0.28887    0.95951    1.000
    N4312    N        0.73739    0.39726    0.97540    1.000
    Si4313   Si       0.74487    0.49163    0.87232    1.000
    N4314    N        0.70711    0.45273    0.93319    1.000
    N4315    N        0.73736    0.46939    0.98648    1.000
    Si4316   Si       0.71507    0.43404    0.97221    1.000
    Si4317   Si       0.73367    0.48730    0.94452    1.000
    Si4318   Si       0.72694    0.53418    0.07021    1.000
    N4319    N        0.73832    0.57572    0.07432    1.000
    N4320    N        0.71013    0.61677    0.02335    1.000
    N4321    N        0.73627    0.51972    0.03011    1.000
    Si4322   Si       0.74549    0.59253    0.03471    1.000
    Si4323   Si       0.73241    0.59210    0.11433    1.000
    N4324    N        0.74946    0.57213    0.99553    1.000
    Si4325   Si       0.72196    0.67297    0.11240    1.000
    N4326    N        0.74232    0.68793    0.07810    1.000
    Si4327   Si       0.75045    0.71375    0.99893    1.000
    N4328    N        0.70685    0.71746    0.99571    1.000
    Si4329   Si       0.71973    0.60935    0.23042    1.000
    N4330    N        0.72840    0.57847    0.20048    1.000
    N4331    N        0.70884    0.52022    0.16029    1.000
    Si4332   Si       0.74830    0.52001    0.13978    1.000
    Si4333   Si       0.70107    0.56356    0.17092    1.000
    N4334    N        0.74233    0.63314    0.12335    1.000
    Si4335   Si       0.69765    0.71503    0.16774    1.000
    N4336    N        0.73839    0.72117    0.23772    1.000
    N4337    N        0.69930    0.68668    0.20022    1.000
    N4338    N        0.74502    0.64460    0.22769    1.000
    Si4339   Si       0.72209    0.68127    0.23600    1.000
    N4340    N        0.73049    0.70643    0.14030    1.000
    N4341    N        0.69155    0.75926    0.17715    1.000
    N4342    N        0.73264    0.59705    0.26958    1.000
    Si4343   Si       0.72301    0.61171    0.30829    1.000
    N4344    N        0.75305    0.58381    0.32643    1.000
    N4345    N        0.75702    0.53084    0.26332    1.000
    Si4346   Si       0.70774    0.68704    0.31069    1.000
    N4347    N        0.73089    0.72515    0.30543    1.000
    N4348    N        0.73548    0.65391    0.31685    1.000
    Si4349   Si       0.71960    0.74795    0.26889    1.000
    N4350    N        0.74023    0.73690    0.37046    1.000
    N4351    N        0.69362    0.68213    0.27008    1.000
    Si4352   Si       0.74250    0.58114    0.45258    1.000
    N4353    N        0.72304    0.54126    0.44917    1.000
    N4354    N        0.72032    0.60676    0.42615    1.000
    N4355    N        0.69353    0.51370    0.39200    1.000
    Si4356   Si       0.74904    0.63572    0.41443    1.000
    N4357    N        0.73070    0.67206    0.39989    1.000
    Si4358   Si       0.71989    0.73034    0.46798    1.000
    Si4359   Si       0.73811    0.56231    0.52669    1.000
    N4360    N        0.72562    0.52337    0.51283    1.000
    Si4361   Si       0.71895    0.62076    0.52346    1.000
    N4362    N        0.71379    0.56672    0.60273    1.000
    Si4363   Si       0.70546    0.52587    0.59522    1.000
    N4364    N        0.70249    0.58336    0.54100    1.000
    N4365    N        0.73102    0.63004    0.56691    1.000
    N4366    N        0.74108    0.50960    0.57778    1.000
    Si4367   Si       0.70027    0.60213    0.58236    1.000
    N4368    N        0.74535    0.59561    0.49550    1.000
    N4369    N        0.72574    0.72182    0.51064    1.000
    N4370    N        0.70645    0.72417    0.58096    1.000
    Si4371   Si       0.74587    0.70928    0.59318    1.000
    N4372    N        0.73938    0.66062    0.50155    1.000
    N4373    N        0.74082    0.67588    0.62187    1.000
    Si4374   Si       0.75611    0.64041    0.60017    1.000
    N4375    N        0.74670    0.61366    0.63580    1.000
    Si4376   Si       0.74439    0.56893    0.63655    1.000
    N4377    N        0.73414    0.54100    0.66719    1.000
    Si4378   Si       0.72311    0.54943    0.70914    1.000
    Si4379   Si       0.69904    0.61548    0.71890    1.000
    N4380    N        0.71330    0.52238    0.74280    1.000
    Si4381   Si       0.75248    0.69450    0.71614    1.000
    Si4382   Si       0.70759    0.73517    0.67992    1.000
    N4383    N        0.70532    0.64130    0.68348    1.000
    Si4384   Si       0.73929    0.64895    0.65917    1.000
    N4385    N        0.74900    0.72624    0.68542    1.000
    N4386    N        0.71039    0.69270    0.72588    1.000
    N4387    N        0.74003    0.53563    0.80608    1.000
    N4388    N        0.70674    0.59847    0.81337    1.000
    Si4389   Si       0.74256    0.57734    0.81713    1.000
    Si4390   Si       0.70436    0.52065    0.78615    1.000
    N4391    N        0.72752    0.62025    0.74961    1.000
    Si4392   Si       0.71312    0.63646    0.78997    1.000
    N4393    N        0.71686    0.72589    0.78689    1.000
    N4394    N        0.73566    0.66462    0.81612    1.000
    Si4395   Si       0.72330    0.66707    0.85707    1.000
    N4396    N        0.72544    0.71589    0.85932    1.000
    Si4397   Si       0.70232    0.73403    0.82640    1.000
    Si4398   Si       0.75116    0.69832    0.79280    1.000
    N4399    N        0.71756    0.52669    0.95091    1.000
    N4400    N        0.73446    0.53333    0.88251    1.000
    Si4401   Si       0.73880    0.61516    0.91450    1.000
    Si4402   Si       0.70609    0.54927    0.91282    1.000
    N4403    N        0.70235    0.59564    0.90425    1.000
    N4404    N        0.74753    0.62879    0.95624    1.000
    Si4405   Si       0.72146    0.53954    0.99379    1.000
    N4406    N        0.72234    0.69614    0.92686    1.000
    N4407    N        0.74724    0.65014    0.89080    1.000
    Si4408   Si       0.72677    0.64418    0.99160    1.000
    Si4409   Si       0.70871    0.72716    0.89878    1.000
    Si4410   Si       0.70522    0.78706    0.06999    1.000
    Si4411   Si       0.70481    0.84851    0.11091    1.000
    N4412    N        0.74977    0.85243    0.10623    1.000
    N4413    N        0.72377    0.87934    0.04197    1.000
    N4414    N        0.69501    0.76988    0.10824    1.000
    N4415    N        0.74867    0.79196    0.07512    1.000
    Si4416   Si       0.74726    0.94848    0.06668    1.000
    N4417    N        0.73572    0.94387    0.02498    1.000
    Si4418   Si       0.72108    0.98938    0.10389    1.000
    N4419    N        0.71055    0.94815    0.09358    1.000
    Si4420   Si       0.73104    0.90192    0.00518    1.000
    Si4421   Si       0.70041    0.96757    0.01559    1.000
    N4422    N        0.75521    0.99277    0.07669    1.000
    Si4423   Si       0.70197    0.84712    0.18839    1.000
    Si4424   Si       0.70897    0.78425    0.14589    1.000
    N4425    N        0.73715    0.87128    0.19798    1.000
    N4426    N        0.70774    0.81262    0.21531    1.000
    Si4427   Si       0.74493    0.80638    0.23631    1.000
    N4428    N        0.70207    0.82689    0.14807    1.000
    Si4429   Si       0.69826    0.92158    0.12782    1.000
    Si4430   Si       0.73263    0.91483    0.19121    1.000
    N4431    N        0.69961    0.92252    0.22018    1.000
    N4432    N        0.73455    0.90855    0.14833    1.000
    N4433    N        0.74045    0.98873    0.14511    1.000
    N4434    N        0.72970    0.85515    0.30256    1.000
    Si4435   Si       0.72703    0.81303    0.30787    1.000
    N4436    N        0.73520    0.78735    0.27390    1.000
    Si4437   Si       0.71412    0.77267    0.36698    1.000
    Si4438   Si       0.69382    0.88309    0.31377    1.000
    N4439    N        0.69395    0.79708    0.33235    1.000
    Si4440   Si       0.72030    0.93223    0.25853    1.000
    N4441    N        0.70060    0.89423    0.35492    1.000
    N4442    N        0.72162    0.97509    0.25506    1.000
    N4443    N        0.69586    0.92091    0.29353    1.000
    N4444    N        0.69862    0.99329    0.31191    1.000
    Si4445   Si       0.71955    0.85538    0.48889    1.000
    N4446    N        0.70576    0.77168    0.46395    1.000
    N4447    N        0.73289    0.84412    0.44922    1.000
    N4448    N        0.73426    0.79563    0.39993    1.000
    Si4449   Si       0.71332    0.80504    0.43513    1.000
    Si4450   Si       0.71931    0.94271    0.42243    1.000
    Si4451   Si       0.74088    0.89029    0.37120    1.000
    N4452    N        0.73752    0.97615    0.40284    1.000
    N4453    N        0.73929    0.90657    0.41271    1.000
    N4454    N        0.71507    0.94667    0.46605    1.000
    Si4455   Si       0.74464    0.93342    0.49491    1.000
    N4456    N        0.72184    0.86563    0.58111    1.000
    N4457    N        0.72804    0.82293    0.51754    1.000
    N4458    N        0.71647    0.78953    0.57950    1.000
    Si4459   Si       0.73827    0.85385    0.61952    1.000
    Si4460   Si       0.69962    0.79878    0.54227    1.000
    Si4461   Si       0.74857    0.88014    0.54955    1.000
    Si4462   Si       0.73632    0.95296    0.56427    1.000
    N4463    N        0.73203    0.96408    0.52287    1.000
    N4464    N        0.73797    0.89173    0.50779    1.000
    N4465    N        0.69793    0.94214    0.58154    1.000
    Si4466   Si       0.72548    0.00682    0.51871    1.000
    N4467    N        0.70829    0.81677    0.70315    1.000
    Si4468   Si       0.74116    0.84682    0.70796    1.000
    N4469    N        0.70363    0.76866    0.64925    1.000
    N4470    N        0.70073    0.84806    0.64432    1.000
    N4471    N        0.72556    0.00302    0.69497    1.000
    N4472    N        0.69656    0.91633    0.64730    1.000
    Si4473   Si       0.72048    0.90169    0.74213    1.000
    Si4474   Si       0.74431    0.98484    0.66112    1.000
    N4475    N        0.70112    0.93951    0.72953    1.000
    Si4476   Si       0.72335    0.97782    0.73185    1.000
    N4477    N        0.71541    0.98712    0.62935    1.000
    N4478    N        0.73592    0.88857    0.70314    1.000
    Si4479   Si       0.73634    0.90918    0.66361    1.000
    Si4480   Si       0.72210    0.83998    0.77717    1.000
    N4481    N        0.73388    0.85364    0.81595    1.000
    N4482    N        0.69735    0.80464    0.77837    1.000
    Si4483   Si       0.73096    0.89820    0.81682    1.000
    N4484    N        0.74419    0.91422    0.77741    1.000
    N4485    N        0.69738    0.91954    0.82477    1.000
    N4486    N        0.69676    0.99917    0.76009    1.000
    N4487    N        0.74094    0.83252    0.88499    1.000
    N4488    N        0.73108    0.83844    0.95206    1.000
    Si4489   Si       0.74169    0.86079    0.91662    1.000
    N4490    N        0.71865    0.76963    0.90500    1.000
    Si4491   Si       0.75276    0.79249    0.90024    1.000
    N4492    N        0.72626    0.89933    0.90384    1.000
    Si4493   Si       0.70496    0.93661    0.89637    1.000
    Si4494   Si       0.71364    0.99531    0.94159    1.000
    N4495    N        0.74052    0.95450    0.88028    1.000
    N4496    N        0.70123    0.95315    0.93613    1.000
    N4497    N        0.70784    0.00019    0.98385    1.000
    N4498    N        0.70120    0.89293    0.97544    1.000
    N4499    N        0.77794    0.05466    0.04109    1.000
    Si4500   Si       0.76542    0.09454    0.05730    1.000
    N4501    N        0.80099    0.11122    0.07213    1.000
    Si4502   Si       0.76485    0.03560    0.07824    1.000
    N4503    N        0.78564    0.04398    0.11507    1.000
    Si4504   Si       0.80005    0.13067    0.11063    1.000
    N4505    N        0.78843    0.23649    0.09593    1.000
    Si4506   Si       0.77598    0.23049    0.05419    1.000
    N4507    N        0.81284    0.15190    0.99348    1.000
    Si4508   Si       0.75361    0.07753    0.13182    1.000
    N4509    N        0.76274    0.12065    0.13030    1.000
    N4510    N        0.80734    0.04473    0.23631    1.000
    Si4511   Si       0.77189    0.05475    0.21391    1.000
    N4512    N        0.77687    0.07448    0.17517    1.000
    Si4513   Si       0.80397    0.20942    0.19892    1.000
    N4514    N        0.76171    0.18751    0.14814    1.000
    N4515    N        0.79817    0.17117    0.21747    1.000
    Si4516   Si       0.77159    0.25450    0.22994    1.000
    N4517    N        0.75916    0.21921    0.20666    1.000
    Si4518   Si       0.79375    0.20730    0.12666    1.000
    Si4519   Si       0.75732    0.18062    0.23105    1.000
    Si4520   Si       0.77863    0.11196    0.33957    1.000
    Si4521   Si       0.79656    0.01850    0.27178    1.000
    N4522    N        0.77436    0.08838    0.30525    1.000
    N4523    N        0.78710    0.01477    0.37073    1.000
    N4524    N        0.76370    0.08663    0.37126    1.000
    N4525    N        0.76779    0.15353    0.33116    1.000
    Si4526   Si       0.80576    0.16990    0.34341    1.000
    N4527    N        0.79841    0.06147    0.47099    1.000
    Si4528   Si       0.78145    0.05353    0.39013    1.000
    Si4529   Si       0.77214    0.02884    0.45384    1.000
    Si4530   Si       0.76241    0.06769    0.49753    1.000
    N4531    N        0.76869    0.21626    0.42078    1.000
    Si4532   Si       0.80346    0.14267    0.47601    1.000
    N4533    N        0.81199    0.18648    0.47775    1.000
    N4534    N        0.76312    0.14974    0.46257    1.000
    Si4535   Si       0.77308    0.19562    0.45920    1.000
    Si4536   Si       0.80804    0.22350    0.39964    1.000
    N4537    N        0.79037    0.10660    0.58756    1.000
    N4538    N        0.77087    0.07559    0.53905    1.000
    Si4539   Si       0.80864    0.09596    0.54799    1.000
    Si4540   Si       0.75564    0.08206    0.57797    1.000
    N4541    N        0.75478    0.04927    0.60649    1.000
    N4542    N        0.81091    0.12653    0.51526    1.000
    Si4543   Si       0.79268    0.23031    0.56187    1.000
    N4544    N        0.78459    0.19032    0.61220    1.000
    N4545    N        0.81075    0.24230    0.52322    1.000
    N4546    N        0.80688    0.09801    0.74076    1.000
    Si4547   Si       0.80311    0.11417    0.62794    1.000
    Si4548   Si       0.76187    0.09793    0.74023    1.000
    Si4549   Si       0.77794    0.04874    0.64437    1.000
    N4550    N        0.77380    0.13275    0.65317    1.000
    N4551    N        0.81197    0.07517    0.64175    1.000
    Si4552   Si       0.78031    0.21028    0.73345    1.000
    Si4553   Si       0.78019    0.15365    0.69044    1.000
    N4554    N        0.80247    0.24518    0.65107    1.000
    N4555    N        0.76278    0.19322    0.69689    1.000
    Si4556   Si       0.81696    0.21457    0.62583    1.000
    N4557    N        0.78677    0.08330    0.84685    1.000
    Si4558   Si       0.77956    0.12679    0.85266    1.000
    N4559    N        0.75137    0.03520    0.80083    1.000
    N4560    N        0.78420    0.17570    0.75779    1.000
    N4561    N        0.78943    0.14886    0.81446    1.000
    N4562    N        0.76649    0.19977    0.86568    1.000
    Si4563   Si       0.80304    0.22237    0.86646    1.000
    Si4564   Si       0.75906    0.15604    0.78506    1.000
    N4565    N        0.77392    0.11557    0.95359    1.000
    N4566    N        0.79904    0.05098    0.96956    1.000
    Si4567   Si       0.76240    0.07394    0.95407    1.000
    Si4568   Si       0.79021    0.01015    0.94988    1.000
    N4569    N        0.80388    0.21838    0.97434    1.000
    N4570    N        0.80915    0.23596    0.90735    1.000
    Si4571   Si       0.80612    0.13842    0.93088    1.000
    Si4572   Si       0.76475    0.20334    0.95565    1.000
    N4573    N        0.78129    0.17463    0.92692    1.000
    Si4574   Si       0.76863    0.13882    0.99101    1.000
    Si4575   Si       0.78899    0.34540    0.10318    1.000
    Si4576   Si       0.79876    0.35510    0.02634    1.000
    Si4577   Si       0.77083    0.27314    0.11357    1.000
    N4578    N        0.77958    0.26530    0.02652    1.000
    N4579    N        0.80114    0.30529    0.11510    1.000
    N4580    N        0.75850    0.33938    0.02500    1.000
    Si4581   Si       0.80580    0.25894    0.99259    1.000
    N4582    N        0.77543    0.46346    0.04822    1.000
    Si4583   Si       0.77042    0.46659    0.09237    1.000
    N4584    N        0.76311    0.42370    0.10229    1.000
    N4585    N        0.79375    0.39206    0.00420    1.000
    N4586    N        0.81277    0.47524    0.09654    1.000
    N4587    N        0.76501    0.29077    0.20710    1.000
    Si4588   Si       0.78520    0.32401    0.22634    1.000
    N4589    N        0.77033    0.36005    0.21120    1.000
    N4590    N        0.80558    0.37232    0.13199    1.000
    N4591    N        0.77872    0.49144    0.21981    1.000
    N4592    N        0.78027    0.49438    0.15359    1.000
    Si4593   Si       0.77641    0.40442    0.14158    1.000
    N4594    N        0.80200    0.43186    0.16444    1.000
    N4595    N        0.75846    0.43187    0.21436    1.000
    Si4596   Si       0.78083    0.46222    0.18671    1.000
    Si4597   Si       0.78235    0.39868    0.22726    1.000
    Si4598   Si       0.77157    0.29352    0.29644    1.000
    N4599    N        0.76945    0.35489    0.32639    1.000
    N4600    N        0.77787    0.32714    0.26998    1.000
    Si4601   Si       0.75684    0.36240    0.28618    1.000
    Si4602   Si       0.81025    0.35366    0.34251    1.000
    N4603    N        0.76099    0.26003    0.27149    1.000
    N4604    N        0.77636    0.39673    0.27103    1.000
    N4605    N        0.78559    0.42703    0.33543    1.000
    N4606    N        0.76696    0.46658    0.28761    1.000
    Si4607   Si       0.80539    0.41356    0.29947    1.000
    Si4608   Si       0.80889    0.47976    0.28966    1.000
    Si4609   Si       0.79067    0.34860    0.40999    1.000
    N4610    N        0.79685    0.30702    0.41925    1.000
    N4611    N        0.80119    0.37548    0.37911    1.000
    N4612    N        0.80744    0.36725    0.44637    1.000
    Si4613   Si       0.76152    0.45232    0.43318    1.000
    N4614    N        0.76262    0.43039    0.47140    1.000
    Si4615   Si       0.81647    0.41202    0.44258    1.000
    Si4616   Si       0.79111    0.46337    0.48926    1.000
    N4617    N        0.79272    0.43117    0.41221    1.000
    Si4618   Si       0.80613    0.41779    0.37324    1.000
    N4619    N        0.77749    0.48740    0.45466    1.000
    N4620    N        0.78089    0.30639    0.53171    1.000
    N4621    N        0.77814    0.35490    0.57247    1.000
    Si4622   Si       0.78323    0.35029    0.52687    1.000
    Si4623   Si       0.76913    0.30581    0.57459    1.000
    N4624    N        0.80513    0.30669    0.60614    1.000
    Si4625   Si       0.80903    0.35088    0.60292    1.000
    Si4626   Si       0.81603    0.28560    0.51703    1.000
    N4627    N        0.77004    0.26128    0.58205    1.000
    Si4628   Si       0.76595    0.39916    0.56973    1.000
    N4629    N        0.77976    0.39810    0.52926    1.000
    N4630    N        0.76928    0.46745    0.52698    1.000
    N4631    N        0.77861    0.43602    0.58612    1.000
    Si4632   Si       0.80021    0.46269    0.55811    1.000
    N4633    N        0.81124    0.50223    0.57464    1.000
    N4634    N        0.77712    0.29500    0.73274    1.000
    N4635    N        0.79845    0.31074    0.67537    1.000
    Si4636   Si       0.78681    0.28375    0.64259    1.000
    N4637    N        0.80519    0.37433    0.63887    1.000
    Si4638   Si       0.76026    0.31511    0.69828    1.000
    N4639    N        0.77209    0.41604    0.69509    1.000
    Si4640   Si       0.77601    0.44315    0.62910    1.000
    Si4641   Si       0.80215    0.49060    0.66181    1.000
    Si4642   Si       0.80538    0.41827    0.72271    1.000
    Si4643   Si       0.77202    0.38634    0.66345    1.000
    N4644    N        0.76271    0.48390    0.64216    1.000
    N4645    N        0.79562    0.33676    0.77872    1.000
    Si4646   Si       0.79951    0.34012    0.84608    1.000
    Si4647   Si       0.76207    0.28419    0.85407    1.000
    N4648    N        0.76350    0.32114    0.83296    1.000
    N4649    N        0.80165    0.37859    0.82754    1.000
    Si4650   Si       0.81447    0.30765    0.75326    1.000
    Si4651   Si       0.81706    0.37419    0.78715    1.000
    N4652    N        0.79681    0.25762    0.84339    1.000
    Si4653   Si       0.78522    0.45116    0.82785    1.000
    N4654    N        0.77391    0.49253    0.84025    1.000
    N4655    N        0.79555    0.40198    0.76062    1.000
    Si4656   Si       0.78024    0.39315    0.86258    1.000
    N4657    N        0.78762    0.43458    0.86760    1.000
    N4658    N        0.80404    0.50584    0.77725    1.000
    N4659    N        0.76825    0.29408    0.89780    1.000
    Si4660   Si       0.76530    0.33565    0.91113    1.000
    N4661    N        0.79498    0.28406    0.95990    1.000
    N4662    N        0.78324    0.35032    0.94920    1.000
    N4663    N        0.79400    0.35815    0.88562    1.000
    Si4664   Si       0.78160    0.26281    0.92655    1.000
    Si4665   Si       0.77847    0.39085    0.96274    1.000
    N4666    N        0.79352    0.41910    0.93526    1.000
    Si4667   Si       0.79111    0.45041    0.90655    1.000
    N4668    N        0.76207    0.48156    0.91177    1.000
    N4669    N        0.78322    0.61405    0.03933    1.000
    N4670    N        0.80676    0.62374    0.10511    1.000
    N4671    N        0.75984    0.73709    0.03526    1.000
    Si4672   Si       0.79362    0.65501    0.02537    1.000
    N4673    N        0.78991    0.73777    0.10160    1.000
    Si4674   Si       0.77608    0.71229    0.06782    1.000
    N4675    N        0.80495    0.68041    0.05898    1.000
    N4676    N        0.75852    0.67142    0.00591    1.000
    Si4677   Si       0.79356    0.52970    0.23529    1.000
    Si4678   Si       0.76795    0.57686    0.18154    1.000
    N4679    N        0.78436    0.61700    0.17680    1.000
    N4680    N        0.80010    0.55546    0.20064    1.000
    N4681    N        0.75286    0.56418    0.14318    1.000
    Si4682   Si       0.78243    0.63626    0.14010    1.000
    N4683    N        0.78460    0.73395    0.17413    1.000
    Si4684   Si       0.77298    0.73386    0.21702    1.000
    Si4685   Si       0.78409    0.63816    0.21473    1.000
    Si4686   Si       0.76219    0.73618    0.13540    1.000
    N4687    N        0.79953    0.67846    0.20664    1.000
    N4688    N        0.79860    0.67678    0.13746    1.000
    Si4689   Si       0.78726    0.59237    0.35099    1.000
    N4690    N        0.80227    0.57774    0.28413    1.000
    N4691    N        0.80697    0.62538    0.32920    1.000
    Si4692   Si       0.76057    0.56828    0.28569    1.000
    Si4693   Si       0.80245    0.51481    0.36304    1.000
    N4694    N        0.81198    0.55798    0.35573    1.000
    N4695    N        0.79983    0.74757    0.31656    1.000
    Si4696   Si       0.77962    0.65880    0.31817    1.000
    N4697    N        0.78794    0.69074    0.34642    1.000
    N4698    N        0.79872    0.66308    0.27931    1.000
    Si4699   Si       0.76583    0.72809    0.33540    1.000
    N4700    N        0.80271    0.72876    0.24777    1.000
    N4701    N        0.77987    0.56231    0.44143    1.000
    N4702    N        0.77729    0.61609    0.38630    1.000
    Si4703   Si       0.76110    0.52469    0.43315    1.000
    Si4704   Si       0.77077    0.63196    0.48870    1.000
    N4705    N        0.76525    0.51415    0.39075    1.000
    Si4706   Si       0.80908    0.62695    0.41325    1.000
    Si4707   Si       0.79638    0.71768    0.45089    1.000
    N4708    N        0.77986    0.63526    0.44699    1.000
    N4709    N        0.79436    0.69797    0.41028    1.000
    N4710    N        0.79685    0.70354    0.49391    1.000
    N4711    N        0.75252    0.72787    0.44305    1.000
    Si4712   Si       0.75192    0.70963    0.40197    1.000
    N4713    N        0.77646    0.56101    0.54633    1.000
    Si4714   Si       0.77888    0.53249    0.57976    1.000
    Si4715   Si       0.80567    0.58739    0.53074    1.000
    N4716    N        0.78149    0.55587    0.61700    1.000
    N4717    N        0.79453    0.62926    0.52505    1.000
    N4718    N        0.79921    0.64073    0.59353    1.000
    Si4719   Si       0.80204    0.66116    0.55656    1.000
    N4720    N        0.76981    0.69246    0.56056    1.000
    Si4721   Si       0.75975    0.69654    0.51793    1.000
    N4722    N        0.76139    0.74515    0.61235    1.000
    N4723    N        0.76147    0.56937    0.72004    1.000
    Si4724   Si       0.80227    0.55226    0.71072    1.000
    N4725    N        0.79571    0.51175    0.69778    1.000
    N4726    N        0.80404    0.62258    0.73847    1.000
    Si4727   Si       0.80905    0.67087    0.67591    1.000
    N4728    N        0.76856    0.66420    0.68803    1.000
    Si4729   Si       0.77624    0.73918    0.65324    1.000
    N4730    N        0.80786    0.70872    0.65146    1.000
    N4731    N        0.77529    0.59060    0.79010    1.000
    N4732    N        0.77036    0.58508    0.85150    1.000
    Si4733   Si       0.78057    0.52207    0.80940    1.000
    Si4734   Si       0.80254    0.58708    0.82515    1.000
    Si4735   Si       0.76728    0.60110    0.74892    1.000
    N4736    N        0.78329    0.71911    0.81816    1.000
    Si4737   Si       0.77026    0.73044    0.85681    1.000
    N4738    N        0.77031    0.69036    0.75482    1.000
    Si4739   Si       0.80626    0.66433    0.74937    1.000
    Si4740   Si       0.76876    0.55859    0.88558    1.000
    Si4741   Si       0.77004    0.59039    0.96258    1.000
    N4742    N        0.76474    0.58108    0.92085    1.000
    N4743    N        0.80582    0.53175    0.88862    1.000
    N4744    N        0.78405    0.70623    0.89137    1.000
    N4745    N        0.80214    0.66700    0.93598    1.000
    N4746    N        0.77620    0.72896    0.96888    1.000
    Si4747   Si       0.76280    0.67753    0.91983    1.000
    Si4748   Si       0.76975    0.77813    0.04100    1.000
    Si4749   Si       0.79916    0.83956    0.01718    1.000
    N4750    N        0.79164    0.87074    0.04467    1.000
    N4751    N        0.76991    0.80838    0.01102    1.000
    Si4752   Si       0.76398    0.80896    0.11209    1.000
    N4753    N        0.80866    0.80576    0.11347    1.000
    Si4754   Si       0.75592    0.87407    0.06805    1.000
    N4755    N        0.76959    0.91497    0.08227    1.000
    Si4756   Si       0.80540    0.91098    0.05779    1.000
    Si4757   Si       0.77358    0.94730    0.00154    1.000
    N4758    N        0.80636    0.94513    0.03032    1.000
    N4759    N        0.77028    0.77834    0.21654    1.000
    Si4760   Si       0.77719    0.85569    0.20262    1.000
    N4761    N        0.79074    0.82532    0.17299    1.000
    Si4762   Si       0.79228    0.78134    0.17615    1.000
    N4763    N        0.77477    0.83689    0.23986    1.000
    N4764    N        0.81296    0.87297    0.12296    1.000
    N4765    N        0.75327    0.77906    0.14177    1.000
    Si4766   Si       0.77378    0.90133    0.12459    1.000
    Si4767   Si       0.75567    0.98069    0.22854    1.000
    N4768    N        0.80608    0.88573    0.19569    1.000
    N4769    N        0.79651    0.93183    0.14404    1.000
    N4770    N        0.75715    0.94968    0.19732    1.000
    N4771    N        0.80808    0.99448    0.16143    1.000
    Si4772   Si       0.77579    0.96442    0.15986    1.000
    Si4773   Si       0.79953    0.79112    0.32709    1.000
    N4774    N        0.80164    0.86763    0.29522    1.000
    N4775    N        0.75714    0.79898    0.33644    1.000
    N4776    N        0.81066    0.80615    0.36596    1.000
    Si4777   Si       0.80980    0.83512    0.26391    1.000
    Si4778   Si       0.76448    0.88547    0.30280    1.000
    N4779    N        0.75860    0.91839    0.27437    1.000
    Si4780   Si       0.79383    0.94574    0.28044    1.000
    N4781    N        0.77029    0.90648    0.34251    1.000
    Si4782   Si       0.80331    0.93182    0.35139    1.000
    N4783    N        0.80010    0.96288    0.32028    1.000
    N4784    N        0.78839    0.97886    0.25358    1.000
    Si4785   Si       0.76887    0.81267    0.37733    1.000
    Si4786   Si       0.76084    0.86801    0.42679    1.000
    N4787    N        0.76296    0.85390    0.38586    1.000
    N4788    N        0.79882    0.87393    0.44567    1.000
    Si4789   Si       0.78047    0.98428    0.40163    1.000
    N4790    N        0.79216    0.99330    0.44155    1.000
    N4791    N        0.78748    0.94252    0.48909    1.000
    N4792    N        0.81069    0.95505    0.38929    1.000
    N4793    N        0.78242    0.85268    0.54130    1.000
    Si4794   Si       0.76918    0.81553    0.52494    1.000
    N4795    N        0.78176    0.78706    0.55648    1.000
    Si4796   Si       0.75712    0.78428    0.59365    1.000
    N4797    N        0.76230    0.81730    0.62155    1.000
    N4798    N        0.80012    0.79703    0.49837    1.000
    Si4799   Si       0.80324    0.92654    0.58107    1.000
    Si4800   Si       0.79419    0.99195    0.60762    1.000
    N4801    N        0.76246    0.91844    0.56535    1.000
    N4802    N        0.80658    0.95055    0.61666    1.000
    N4803    N        0.75950    0.98538    0.58255    1.000
    N4804    N        0.79746    0.77464    0.66466    1.000
    N4805    N        0.77877    0.83410    0.69237    1.000
    Si4806   Si       0.79127    0.81689    0.65292    1.000
    Si4807   Si       0.79438    0.82919    0.73360    1.000
    Si4808   Si       0.80868    0.88039    0.63255    1.000
    N4809    N        0.76442    0.88280    0.63872    1.000
    N4810    N        0.80714    0.78915    0.73616    1.000
    N4811    N        0.78104    0.00558    0.64530    1.000
    N4812    N        0.76039    0.94518    0.66683    1.000
    Si4813   Si       0.80296    0.94610    0.65966    1.000
    N4814    N        0.79935    0.83534    0.85826    1.000
    N4815    N        0.79797    0.78823    0.80355    1.000
    Si4816   Si       0.75939    0.85161    0.84934    1.000
    Si4817   Si       0.80494    0.79509    0.84606    1.000
    N4818    N        0.77415    0.77149    0.86848    1.000
    N4819    N        0.75504    0.84073    0.74902    1.000
    N4820    N        0.76160    0.97759    0.75273    1.000
    N4821    N        0.77806    0.97105    0.81186    1.000
    Si4822   Si       0.77401    0.94497    0.77582    1.000
    Si4823   Si       0.80099    0.96277    0.84920    1.000
    N4824    N        0.76382    0.89473    0.84613    1.000
    Si4825   Si       0.77906    0.00697    0.78300    1.000
    N4826    N        0.79415    0.00109    0.87145    1.000
    N4827    N        0.81400    0.92673    0.77280    1.000
    Si4828   Si       0.76568    0.81876    0.96934    1.000
    N4829    N        0.77653    0.79145    0.93831    1.000
    N4830    N        0.79930    0.84829    0.97387    1.000
    N4831    N        0.78279    0.87544    0.91329    1.000
    Si4832   Si       0.80155    0.76136    0.95466    1.000
    Si4833   Si       0.75281    0.99600    0.88572    1.000
    N4834    N        0.75470    0.00384    0.92690    1.000
    N4835    N        0.80206    0.93426    0.88604    1.000
    N4836    N        0.76809    0.90872    0.98388    1.000
    N4837    N        0.79187    0.98100    0.98336    1.000
    Si4838   Si       0.76325    0.91476    0.88542    1.000
    Si4839   Si       0.79227    0.88739    0.95499    1.000
    N4840    N        0.83548    0.08888    0.01949    1.000
    Si4841   Si       0.84221    0.10967    0.05739    1.000
    N4842    N        0.83387    0.01726    0.02645    1.000
    N4843    N        0.84526    0.01082    0.09736    1.000
    Si4844   Si       0.86403    0.00888    0.05808    1.000
    Si4845   Si       0.81126    0.05118    0.01392    1.000
    N4846    N        0.81225    0.17285    0.10590    1.000
    Si4847   Si       0.83559    0.18570    0.07034    1.000
    N4848    N        0.85438    0.15204    0.05135    1.000
    Si4849   Si       0.82296    0.19356    0.00279    1.000
    N4850    N        0.86589    0.19971    0.00537    1.000
    N4851    N        0.80728    0.20407    0.04255    1.000
    Si4852   Si       0.81879    0.02512    0.13077    1.000
    N4853    N        0.83075    0.11530    0.13752    1.000
    Si4854   Si       0.84048    0.07220    0.23489    1.000
    N4855    N        0.83536    0.05413    0.15957    1.000
    N4856    N        0.82903    0.10573    0.20985    1.000
    Si4857   Si       0.81672    0.09084    0.17088    1.000
    N4858    N        0.86362    0.16288    0.19022    1.000
    Si4859   Si       0.85566    0.24452    0.15992    1.000
    Si4860   Si       0.83414    0.14841    0.22049    1.000
    N4861    N        0.81602    0.24157    0.22647    1.000
    N4862    N        0.81967    0.22082    0.16027    1.000
    Si4863   Si       0.85580    0.05394    0.30210    1.000
    N4864    N        0.85255    0.08732    0.27331    1.000
    N4865    N        0.86081    0.07398    0.34165    1.000
    N4866    N        0.82163    0.02466    0.30524    1.000
    N4867    N        0.81987    0.12768    0.34601    1.000
    Si4868   Si       0.86267    0.11770    0.34624    1.000
    Si4869   Si       0.84983    0.22381    0.34470    1.000
    N4870    N        0.83194    0.19289    0.31759    1.000
    N4871    N        0.85982    0.15701    0.25485    1.000
    Si4872   Si       0.86492    0.17527    0.29473    1.000
    N4873    N        0.81571    0.24896    0.36473    1.000
    Si4874   Si       0.85601    0.04938    0.37770    1.000
    Si4875   Si       0.82867    0.07951    0.44172    1.000
    N4876    N        0.86137    0.06324    0.46998    1.000
    N4877    N        0.82172    0.06297    0.40394    1.000
    N4878    N        0.82939    0.12220    0.44613    1.000
    Si4879   Si       0.83309    0.04467    0.49876    1.000
    Si4880   Si       0.87257    0.22496    0.44492    1.000
    N4881    N        0.83583    0.24356    0.42891    1.000
    Si4882   Si       0.86034    0.17898    0.39198    1.000
    N4883    N        0.87053    0.22845    0.48859    1.000
    N4884    N        0.81955    0.18585    0.38169    1.000
    Si4885   Si       0.86976    0.14188    0.45166    1.000
    N4886    N        0.86939    0.18203    0.43450    1.000
    N4887    N        0.83216    0.06182    0.53772    1.000
    Si4888   Si       0.86329    0.01296    0.61062    1.000
    N4889    N        0.85881    0.11507    0.56258    1.000
    Si4890   Si       0.86934    0.07139    0.56217    1.000
    Si4891   Si       0.86289    0.20815    0.57236    1.000
    Si4892   Si       0.84864    0.14373    0.52872    1.000
    N4893    N        0.84377    0.18419    0.54158    1.000
    N4894    N        0.83008    0.23445    0.58698    1.000
    Si4895   Si       0.83455    0.21181    0.50585    1.000
    Si4896   Si       0.87127    0.13880    0.59855    1.000
    Si4897   Si       0.84624    0.05819    0.66259    1.000
    N4898    N        0.82737    0.04546    0.70067    1.000
    N4899    N        0.85314    0.01920    0.65228    1.000
    Si4900   Si       0.83780    0.13157    0.73379    1.000
    Si4901   Si       0.82445    0.05821    0.74145    1.000
    N4902    N        0.83948    0.13755    0.62715    1.000
    N4903    N        0.84994    0.20334    0.65526    1.000
    Si4904   Si       0.83054    0.23275    0.68402    1.000
    N4905    N        0.82270    0.15217    0.69784    1.000
    Si4906   Si       0.84900    0.15979    0.66470    1.000
    N4907    N        0.81816    0.23150    0.72507    1.000
    N4908    N        0.81651    0.02171    0.76422    1.000
    Si4909   Si       0.86330    0.02112    0.76569    1.000
    N4910    N        0.86461    0.06373    0.75782    1.000
    Si4911   Si       0.82569    0.08598    0.86863    1.000
    N4912    N        0.86457    0.00992    0.86860    1.000
    N4913    N        0.86905    0.07860    0.85701    1.000
    N4914    N        0.83389    0.21283    0.79537    1.000
    Si4915   Si       0.83950    0.23905    0.76164    1.000
    N4916    N        0.84990    0.15441    0.76902    1.000
    N4917    N        0.83729    0.19587    0.85948    1.000
    Si4918   Si       0.86334    0.21332    0.82765    1.000
    Si4919   Si       0.81730    0.17188    0.78898    1.000
    N4920    N        0.87145    0.25633    0.83032    1.000
    N4921    N        0.81554    0.12722    0.88093    1.000
    N4922    N        0.82179    0.05956    0.90268    1.000
    Si4923   Si       0.83429    0.06586    0.94324    1.000
    Si4924   Si       0.82871    0.01766    0.89162    1.000
    N4925    N        0.83908    0.10774    0.95181    1.000
    N4926    N        0.86906    0.04276    0.94993    1.000
    Si4927   Si       0.84367    0.12158    0.99314    1.000
    Si4928   Si       0.84581    0.15948    0.88100    1.000
    N4929    N        0.84401    0.16703    0.92519    1.000
    N4930    N        0.86671    0.22743    0.94466    1.000
    Si4931   Si       0.82814    0.20838    0.93584    1.000
    Si4932   Si       0.84323    0.30158    0.10689    1.000
    Si4933   Si       0.85282    0.30253    0.02525    1.000
    N4934    N        0.85541    0.28887    0.06651    1.000
    N4935    N        0.82179    0.32479    0.00458    1.000
    N4936    N        0.84688    0.26571    0.00232    1.000
    N4937    N        0.81169    0.35075    0.06604    1.000
    N4938    N        0.84135    0.43325    0.04132    1.000
    Si4939   Si       0.83153    0.41491    0.00270    1.000
    N4940    N        0.83716    0.50057    0.03514    1.000
    Si4941   Si       0.81879    0.46756    0.05104    1.000
    N4942    N        0.86161    0.40890    0.10334    1.000
    N4943    N        0.86123    0.26472    0.12258    1.000
    N4944    N        0.86595    0.33559    0.12060    1.000
    Si4945   Si       0.84801    0.37390    0.12801    1.000
    Si4946   Si       0.84489    0.27099    0.22874    1.000
    N4947    N        0.82610    0.30957    0.23525    1.000
    N4948    N        0.86359    0.27673    0.18947    1.000
    N4949    N        0.82583    0.40352    0.22166    1.000
    N4950    N        0.85661    0.46957    0.14760    1.000
    Si4951   Si       0.84093    0.42267    0.18419    1.000
    Si4952   Si       0.82018    0.49235    0.13543    1.000
    N4953    N        0.86520    0.39426    0.16393    1.000
    N4954    N        0.86629    0.44910    0.21076    1.000
    Si4955   Si       0.85190    0.42803    0.24660    1.000
    Si4956   Si       0.83123    0.28405    0.34330    1.000
    Si4957   Si       0.82343    0.32396    0.27713    1.000
    N4958    N        0.86489    0.33607    0.27995    1.000
    N4959    N        0.83633    0.32304    0.36071    1.000
    N4960    N        0.86875    0.26261    0.33445    1.000
    N4961    N        0.82889    0.37994    0.31244    1.000
    Si4962   Si       0.86835    0.37546    0.29486    1.000
    N4963    N        0.81358    0.29514    0.30690    1.000
    N4964    N        0.83081    0.44423    0.28011    1.000
    Si4965   Si       0.84725    0.47303    0.35370    1.000
    N4966    N        0.84781    0.43120    0.36597    1.000
    N4967    N        0.81759    0.49155    0.33072    1.000
    N4968    N        0.82869    0.30216    0.47844    1.000
    N4969    N        0.86812    0.30701    0.42218    1.000
    Si4970   Si       0.83444    0.34486    0.47524    1.000
    Si4971   Si       0.83113    0.28670    0.43527    1.000
    N4972    N        0.87393    0.36027    0.46665    1.000
    N4973    N        0.85941    0.41374    0.43153    1.000
    N4974    N        0.82476    0.42827    0.48463    1.000
    N4975    N        0.83339    0.49764    0.38975    1.000
    Si4976   Si       0.85503    0.50878    0.48434    1.000
    N4977    N        0.84820    0.36099    0.58656    1.000
    N4978    N        0.84255    0.29768    0.54852    1.000
    Si4979   Si       0.85284    0.34149    0.54795    1.000
    N4980    N        0.82662    0.35903    0.51660    1.000
    Si4981   Si       0.83469    0.27763    0.58693    1.000
    N4982    N        0.83487    0.43429    0.54716    1.000
    Si4983   Si       0.86015    0.45114    0.50740    1.000
    Si4984   Si       0.82269    0.40279    0.51890    1.000
    N4985    N        0.86141    0.46411    0.60378    1.000
    N4986    N        0.82653    0.48661    0.50559    1.000
    Si4987   Si       0.84655    0.50471    0.59837    1.000
    N4988    N        0.84538    0.32226    0.72960    1.000
    Si4989   Si       0.83945    0.31032    0.68948    1.000
    N4990    N        0.85469    0.27011    0.67974    1.000
    N4991    N        0.85923    0.33656    0.66114    1.000
    Si4992   Si       0.84320    0.37730    0.66385    1.000
    N4993    N        0.82782    0.45249    0.73223    1.000
    N4994    N        0.86807    0.40176    0.63994    1.000
    Si4995   Si       0.85622    0.44289    0.64107    1.000
    N4996    N        0.83995    0.40047    0.70062    1.000
    Si4997   Si       0.86241    0.43684    0.70767    1.000
    N4998    N        0.81351    0.44859    0.64956    1.000
    N4999    N        0.83336    0.31515    0.83811    1.000
    Si5000   Si       0.83278    0.27446    0.82293    1.000
    N5001    N        0.85816    0.35902    0.78805    1.000
    N5002    N        0.82658    0.27624    0.77960    1.000
    Si5003   Si       0.86383    0.34696    0.82994    1.000
    N5004    N        0.86160    0.36771    0.86677    1.000
    Si5005   Si       0.82922    0.47013    0.76992    1.000
    N5006    N        0.82618    0.44821    0.81094    1.000
    Si5007   Si       0.86271    0.45986    0.83141    1.000
    N5008    N        0.86602    0.49401    0.77657    1.000
    N5009    N        0.86116    0.49827    0.85062    1.000
    N5010    N        0.87100    0.43800    0.86800    1.000
    Si5011   Si       0.83563    0.36323    0.90185    1.000
    N5012    N        0.84482    0.33634    0.93674    1.000
    Si5013   Si       0.81359    0.32302    0.96098    1.000
    N5014    N        0.85859    0.38269    0.99147    1.000
    N5015    N        0.83139    0.46776    0.91253    1.000
    Si5016   Si       0.85199    0.43657    0.93448    1.000
    N5017    N        0.86134    0.39655    0.92020    1.000
    N5018    N        0.84891    0.44802    0.97778    1.000
    Si5019   Si       0.84845    0.53775    0.05096    1.000
    N5020    N        0.82530    0.56444    0.07530    1.000
    Si5021   Si       0.85160    0.55921    0.11131    1.000
    N5022    N        0.84916    0.55849    0.00980    1.000
    N5023    N        0.85114    0.62572    0.05537    1.000
    Si5024   Si       0.81477    0.60496    0.06671    1.000
    Si5025   Si       0.84895    0.51423    0.99574    1.000
    N5026    N        0.85870    0.75983    0.11325    1.000
    N5027    N        0.85940    0.68246    0.10403    1.000
    Si5028   Si       0.81858    0.66795    0.09980    1.000
    Si5029   Si       0.86371    0.65245    0.02289    1.000
    N5030    N        0.82863    0.65749    0.99823    1.000
    N5031    N        0.86558    0.51878    0.20450    1.000
    Si5032   Si       0.85668    0.59999    0.22678    1.000
    Si5033   Si       0.83631    0.54704    0.18178    1.000
    N5034    N        0.81869    0.61873    0.23624    1.000
    N5035    N        0.85830    0.58392    0.18482    1.000
    N5036    N        0.83386    0.53383    0.14121    1.000
    Si5037   Si       0.86604    0.75437    0.15635    1.000
    N5038    N        0.85171    0.71364    0.16624    1.000
    Si5039   Si       0.81237    0.70063    0.17187    1.000
    Si5040   Si       0.83583    0.55084    0.28421    1.000
    Si5041   Si       0.85456    0.56137    0.35461    1.000
    N5042    N        0.86069    0.62305    0.29132    1.000
    N5043    N        0.82081    0.51518    0.26614    1.000
    N5044    N        0.86501    0.56740    0.25402    1.000
    Si5045   Si       0.81572    0.62029    0.28242    1.000
    N5046    N        0.86720    0.55240    0.31442    1.000
    N5047    N        0.86670    0.60404    0.35987    1.000
    Si5048   Si       0.84868    0.63908    0.34469    1.000
    N5049    N        0.86408    0.67672    0.32651    1.000
    N5050    N        0.85962    0.74760    0.27531    1.000
    Si5051   Si       0.81639    0.68807    0.24909    1.000
    N5052    N        0.85746    0.67760    0.24611    1.000
    Si5053   Si       0.86450    0.51640    0.41232    1.000
    N5054    N        0.84863    0.53290    0.44889    1.000
    N5055    N        0.83889    0.59685    0.42640    1.000
    Si5056   Si       0.82121    0.56732    0.45111    1.000
    N5057    N        0.82244    0.57393    0.49308    1.000
    Si5058   Si       0.87331    0.59309    0.40258    1.000
    Si5059   Si       0.85686    0.74960    0.41354    1.000
    N5060    N        0.87051    0.71139    0.49519    1.000
    N5061    N        0.82335    0.75112    0.44360    1.000
    N5062    N        0.83426    0.65195    0.38580    1.000
    N5063    N        0.85594    0.71775    0.38231    1.000
    Si5064   Si       0.82131    0.69193    0.37683    1.000
    N5065    N        0.84592    0.58381    0.54982    1.000
    Si5066   Si       0.86292    0.57055    0.51092    1.000
    Si5067   Si       0.86886    0.57679    0.58541    1.000
    Si5068   Si       0.83479    0.63258    0.61472    1.000
    N5069    N        0.84313    0.59011    0.61888    1.000
    N5070    N        0.83781    0.68029    0.54488    1.000
    Si5071   Si       0.83326    0.71342    0.51702    1.000
    N5072    N        0.83837    0.75002    0.54182    1.000
    Si5073   Si       0.86841    0.75107    0.57791    1.000
    N5074    N        0.86851    0.65830    0.60245    1.000
    Si5075   Si       0.87516    0.67482    0.56260    1.000
    N5076    N        0.84370    0.75589    0.61217    1.000
    Si5077   Si       0.81890    0.55763    0.63884    1.000
    Si5078   Si       0.85736    0.60474    0.66555    1.000
    N5079    N        0.82921    0.51457    0.63919    1.000
    N5080    N        0.82154    0.57353    0.67868    1.000
    Si5081   Si       0.84312    0.59967    0.73741    1.000
    N5082    N        0.82956    0.55789    0.74461    1.000
    N5083    N        0.87225    0.60769    0.70728    1.000
    N5084    N        0.84910    0.74568    0.69336    1.000
    Si5085   Si       0.84264    0.73654    0.64933    1.000
    N5086    N        0.83105    0.63875    0.65686    1.000
    N5087    N        0.82714    0.68274    0.71452    1.000
    Si5088   Si       0.84554    0.71962    0.72915    1.000
    N5089    N        0.83820    0.61256    0.83360    1.000
    Si5090   Si       0.83859    0.53463    0.86159    1.000
    Si5091   Si       0.84037    0.53256    0.78166    1.000
    N5092    N        0.81733    0.54611    0.82104    1.000
    N5093    N        0.86368    0.61820    0.77109    1.000
    N5094    N        0.82972    0.73258    0.76536    1.000
    N5095    N        0.85358    0.72684    0.82617    1.000
    Si5096   Si       0.85434    0.64178    0.80574    1.000
    N5097    N        0.82328    0.66753    0.78962    1.000
    Si5098   Si       0.82240    0.71044    0.80144    1.000
    N5099    N        0.86265    0.56771    0.87423    1.000
    N5100    N        0.82381    0.52594    0.96161    1.000
    Si5101   Si       0.83746    0.56708    0.96826    1.000
    Si5102   Si       0.82537    0.50921    0.92106    1.000
    N5103    N        0.81151    0.60039    0.96556    1.000
    N5104    N        0.86783    0.51744    0.91024    1.000
    Si5105   Si       0.82687    0.64048    0.95876    1.000
    Si5106   Si       0.86703    0.75681    0.95037    1.000
    Si5107   Si       0.82184    0.70128    0.91224    1.000
    N5108    N        0.86590    0.64255    0.94143    1.000
    N5109    N        0.83150    0.73901    0.93060    1.000
    N5110    N        0.85759    0.68984    0.88867    1.000
    Si5111   Si       0.84289    0.78437    0.02051    1.000
    N5112    N        0.84022    0.82731    0.02265    1.000
    Si5113   Si       0.82006    0.76875    0.09300    1.000
    Si5114   Si       0.87162    0.85721    0.01345    1.000
    N5115    N        0.81360    0.77479    0.05107    1.000
    Si5116   Si       0.82763    0.97785    0.00821    1.000
    N5117    N        0.84208    0.91199    0.08001    1.000
    Si5118   Si       0.85182    0.89212    0.11669    1.000
    N5119    N        0.86172    0.90037    0.01391    1.000
    Si5120   Si       0.81894    0.83556    0.14248    1.000
    N5121    N        0.83923    0.77844    0.18295    1.000
    N5122    N        0.85594    0.83971    0.16733    1.000
    N5123    N        0.84596    0.83137    0.23932    1.000
    Si5124   Si       0.86094    0.81413    0.20163    1.000
    Si5125   Si       0.85257    0.94472    0.23760    1.000
    Si5126   Si       0.83860    0.99004    0.19196    1.000
    N5127    N        0.82998    0.94842    0.19825    1.000
    N5128    N        0.85582    0.98919    0.23613    1.000
    Si5129   Si       0.82392    0.91579    0.17190    1.000
    N5130    N        0.86293    0.91430    0.15157    1.000
    N5131    N        0.86756    0.86463    0.29717    1.000
    N5132    N        0.81498    0.79942    0.28813    1.000
    Si5133   Si       0.81812    0.75717    0.27867    1.000
    Si5134   Si       0.83499    0.89386    0.30043    1.000
    N5135    N        0.83820    0.90779    0.34146    1.000
    N5136    N        0.83206    0.92514    0.27129    1.000
    N5137    N        0.84899    0.00461    0.36935    1.000
    Si5138   Si       0.81529    0.99930    0.34012    1.000
    Si5139   Si       0.86657    0.89990    0.37278    1.000
    N5140    N        0.82801    0.81846    0.43213    1.000
    N5141    N        0.86326    0.78855    0.48419    1.000
    N5142    N        0.85298    0.86468    0.39614    1.000
    Si5143   Si       0.84219    0.81948    0.39145    1.000
    Si5144   Si       0.83865    0.86097    0.43667    1.000
    Si5145   Si       0.82717    0.78925    0.46403    1.000
    N5146    N        0.86953    0.86083    0.46775    1.000
    N5147    N        0.86808    0.78600    0.39093    1.000
    Si5148   Si       0.82092    0.96984    0.46854    1.000
    N5149    N        0.85287    0.93458    0.48403    1.000
    N5150    N        0.85798    0.98000    0.44298    1.000
    Si5151   Si       0.85125    0.97309    0.39942    1.000
    Si5152   Si       0.86957    0.89457    0.49340    1.000
    N5153    N        0.84086    0.82305    0.55232    1.000
    Si5154   Si       0.82156    0.86240    0.55572    1.000
    Si5155   Si       0.82162    0.78849    0.53541    1.000
    N5156    N        0.81926    0.88789    0.59155    1.000
    N5157    N        0.83736    0.88976    0.52604    1.000
    Si5158   Si       0.82155    0.92857    0.51413    1.000
    Si5159   Si       0.83471    0.99021    0.54639    1.000
    N5160    N        0.82707    0.00098    0.50356    1.000
    N5161    N        0.81955    0.94951    0.55046    1.000
    N5162    N        0.82784    0.00556    0.58565    1.000
    Si5163   Si       0.86512    0.84441    0.71870    1.000
    Si5164   Si       0.86485    0.83333    0.65709    1.000
    N5165    N        0.82588    0.84100    0.63843    1.000
    N5166    N        0.84998    0.81351    0.69102    1.000
    Si5167   Si       0.82304    0.77914    0.69810    1.000
    N5168    N        0.82775    0.85398    0.74239    1.000
    N5169    N        0.86596    0.90956    0.73069    1.000
    Si5170   Si       0.84222    0.00285    0.69337    1.000
    N5171    N        0.82424    0.90599    0.66201    1.000
    Si5172   Si       0.85452    0.92205    0.68903    1.000
    N5173    N        0.82954    0.96325    0.68721    1.000
    Si5174   Si       0.82368    0.77554    0.77304    1.000
    N5175    N        0.84531    0.78435    0.85995    1.000
    N5176    N        0.86409    0.78703    0.78989    1.000
    Si5177   Si       0.87070    0.76772    0.82867    1.000
    Si5178   Si       0.84861    0.93585    0.79828    1.000
    N5179    N        0.83977    0.95324    0.83700    1.000
    Si5180   Si       0.83692    0.89156    0.75899    1.000
    N5181    N        0.86325    0.89454    0.79497    1.000
    Si5182   Si       0.83671    0.82643    0.96277    1.000
    N5183    N        0.83680    0.78302    0.97496    1.000
    N5184    N        0.83715    0.82436    0.91933    1.000
    Si5185   Si       0.81418    0.85297    0.89426    1.000
    Si5186   Si       0.86521    0.80127    0.89527    1.000
    N5187    N        0.84660    0.87936    0.88743    1.000
    Si5188   Si       0.86597    0.99784    0.94987    1.000
    N5189    N        0.82764    0.99996    0.93032    1.000
    Si5190   Si       0.86105    0.92522    0.97683    1.000
    Si5191   Si       0.83591    0.91833    0.90611    1.000
    N5192    N        0.86337    0.96890    0.98205    1.000
    N5193    N        0.83005    0.91013    0.94877    1.000
    N5194    N        0.89748    0.03747    0.04401    1.000
    Si5195   Si       0.90392    0.07195    0.06602    1.000
    Si5196   Si       0.92621    0.04123    0.01030    1.000
    N5197    N        0.92530    0.10142    0.04202    1.000
    N5198    N        0.86951    0.09148    0.08427    1.000
    Si5199   Si       0.92151    0.11239    0.99834    1.000
    Si5200   Si       0.87302    0.25121    0.08101    1.000
    N5201    N        0.91838    0.17500    0.04746    1.000
    Si5202   Si       0.88622    0.16498    0.02218    1.000
    Si5203   Si       0.90251    0.17513    0.08862    1.000
    N5204    N        0.87135    0.20807    0.08456    1.000
    N5205    N        0.91564    0.25629    0.99469    1.000
    Si5206   Si       0.88762    0.01773    0.24164    1.000
    N5207    N        0.89530    0.07914    0.14747    1.000
    Si5208   Si       0.87546    0.04965    0.17317    1.000
    N5209    N        0.91434    0.12855    0.24012    1.000
    Si5210   Si       0.87180    0.10907    0.12373    1.000
    N5211    N        0.87549    0.05285    0.21621    1.000
    Si5212   Si       0.91874    0.23416    0.12166    1.000
    N5213    N        0.88807    0.14915    0.12280    1.000
    Si5214   Si       0.92532    0.21972    0.19206    1.000
    Si5215   Si       0.88865    0.17476    0.15857    1.000
    N5216    N        0.92282    0.17090    0.18649    1.000
    Si5217   Si       0.89791    0.16630    0.22195    1.000
    N5218    N        0.90168    0.20961    0.23077    1.000
    N5219    N        0.89432    0.21992    0.15808    1.000
    N5220    N        0.88732    0.02934    0.28503    1.000
    Si5221   Si       0.88146    0.11818    0.26751    1.000
    Si5222   Si       0.92470    0.01782    0.30141    1.000
    N5223    N        0.88525    0.13660    0.31092    1.000
    Si5224   Si       0.90795    0.23457    0.26437    1.000
    N5225    N        0.89305    0.20860    0.29997    1.000
    Si5226   Si       0.91530    0.20672    0.33644    1.000
    N5227    N        0.88369    0.20371    0.36472    1.000
    Si5228   Si       0.91369    0.12764    0.39732    1.000
    Si5229   Si       0.90257    0.07600    0.46160    1.000
    N5230    N        0.89898    0.11298    0.43690    1.000
    N5231    N        0.89165    0.04997    0.40083    1.000
    Si5232   Si       0.92817    0.03023    0.41099    1.000
    N5233    N        0.87516    0.14424    0.49466    1.000
    N5234    N        0.90716    0.24960    0.43894    1.000
    N5235    N        0.87392    0.13853    0.38253    1.000
    N5236    N        0.89732    0.04872    0.53725    1.000
    N5237    N        0.91050    0.11985    0.60875    1.000
    N5238    N        0.87366    0.05504    0.60072    1.000
    N5239    N        0.92540    0.09397    0.49718    1.000
    Si5240   Si       0.91656    0.13653    0.50364    1.000
    N5241    N        0.88468    0.24002    0.55336    1.000
    Si5242   Si       0.90106    0.24704    0.51325    1.000
    N5243    N        0.88101    0.18043    0.59905    1.000
    N5244    N        0.92742    0.15396    0.54225    1.000
    Si5245   Si       0.90332    0.07768    0.62365    1.000
    N5246    N        0.88069    0.08418    0.66158    1.000
    Si5247   Si       0.90037    0.11557    0.68252    1.000
    N5248    N        0.87670    0.11387    0.71862    1.000
    Si5249   Si       0.93074    0.14587    0.63762    1.000
    N5250    N        0.89203    0.15389    0.66329    1.000
    N5251    N        0.91109    0.23144    0.68543    1.000
    Si5252   Si       0.89208    0.19812    0.63798    1.000
    Si5253   Si       0.90545    0.22158    0.72832    1.000
    N5254    N        0.89838    0.24000    0.62214    1.000
    N5255    N        0.91199    0.18249    0.74293    1.000
    Si5256   Si       0.88645    0.03949    0.84588    1.000
    N5257    N        0.88193    0.01873    0.80391    1.000
    N5258    N        0.90675    0.12334    0.78350    1.000
    Si5259   Si       0.89414    0.09491    0.75301    1.000
    N5260    N        0.93027    0.03240    0.85110    1.000
    N5261    N        0.89443    0.18595    0.81544    1.000
    Si5262   Si       0.91185    0.17375    0.85207    1.000
    Si5263   Si       0.89334    0.16330    0.77773    1.000
    N5264    N        0.88108    0.24534    0.75473    1.000
    N5265    N        0.88462    0.14480    0.86802    1.000
    Si5266   Si       0.89704    0.10620    0.87806    1.000
    Si5267   Si       0.90576    0.06536    0.94368    1.000
    N5268    N        0.89760    0.10335    0.92269    1.000
    N5269    N        0.92035    0.07257    0.98343    1.000
    N5270    N        0.93356    0.23126    0.93226    1.000
    Si5271   Si       0.87722    0.23848    0.98632    1.000
    N5272    N        0.90714    0.20803    0.87944    1.000
    N5273    N        0.88470    0.13397    0.98946    1.000
    Si5274   Si       0.87598    0.13646    0.94222    1.000
    Si5275   Si       0.89722    0.20531    0.92298    1.000
    N5276    N        0.90838    0.16549    0.93745    1.000
    N5277    N        0.89118    0.32166    0.01313    1.000
    Si5278   Si       0.89757    0.36462    0.00970    1.000
    N5279    N        0.91643    0.25682    0.08472    1.000
    Si5280   Si       0.87601    0.42089    0.06483    1.000
    N5281    N        0.90277    0.39592    0.04007    1.000
    N5282    N        0.89856    0.45677    0.08156    1.000
    Si5283   Si       0.90811    0.33076    0.13480    1.000
    Si5284   Si       0.90081    0.29158    0.20937    1.000
    N5285    N        0.91334    0.32422    0.23685    1.000
    N5286    N        0.92098    0.31584    0.17478    1.000
    N5287    N        0.92332    0.36953    0.13510    1.000
    Si5288   Si       0.88133    0.44584    0.12167    1.000
    N5289    N        0.92384    0.38926    0.20370    1.000
    Si5290   Si       0.87930    0.48194    0.18546    1.000
    N5291    N        0.91653    0.43633    0.14872    1.000
    N5292    N        0.92057    0.49666    0.17664    1.000
    Si5293   Si       0.90850    0.39692    0.16472    1.000
    Si5294   Si       0.89395    0.30706    0.27172    1.000
    Si5295   Si       0.90853    0.27928    0.34218    1.000
    N5296    N        0.92033    0.29782    0.30404    1.000
    N5297    N        0.88324    0.26888    0.25088    1.000
    N5298    N        0.89932    0.37921    0.32379    1.000
    N5299    N        0.88865    0.49007    0.34603    1.000
    N5300    N        0.88085    0.40212    0.26076    1.000
    Si5301   Si       0.92171    0.40422    0.24469    1.000
    N5302    N        0.91346    0.30992    0.37272    1.000
    Si5303   Si       0.87274    0.32824    0.38401    1.000
    N5304    N        0.93151    0.32391    0.43825    1.000
    N5305    N        0.88559    0.36705    0.39761    1.000
    Si5306   Si       0.90292    0.35617    0.43543    1.000
    Si5307   Si       0.90066    0.29213    0.44953    1.000
    N5308    N        0.90460    0.28749    0.49442    1.000
    Si5309   Si       0.91584    0.47969    0.38088    1.000
    Si5310   Si       0.87512    0.41035    0.39219    1.000
    N5311    N        0.88099    0.47216    0.47434    1.000
    N5312    N        0.90564    0.50125    0.41992    1.000
    Si5313   Si       0.88479    0.40307    0.46640    1.000
    N5314    N        0.91101    0.43608    0.39342    1.000
    N5315    N        0.92406    0.39246    0.44712    1.000
    Si5316   Si       0.91969    0.48149    0.45730    1.000
    N5317    N        0.89325    0.34706    0.53733    1.000
    Si5318   Si       0.91685    0.31029    0.52672    1.000
    N5319    N        0.91250    0.35141    0.61345    1.000
    Si5320   Si       0.89998    0.26544    0.58546    1.000
    Si5321   Si       0.88350    0.38258    0.60437    1.000
    N5322    N        0.92947    0.28248    0.55814    1.000
    N5323    N        0.87277    0.29412    0.60614    1.000
    Si5324   Si       0.90752    0.38898    0.53650    1.000
    N5325    N        0.88691    0.47133    0.54011    1.000
    N5326    N        0.90137    0.41066    0.57618    1.000
    N5327    N        0.88404    0.41118    0.50874    1.000
    Si5328   Si       0.87363    0.44197    0.56899    1.000
    N5329    N        0.91480    0.29578    0.65870    1.000
    N5330    N        0.90846    0.36390    0.73359    1.000
    Si5331   Si       0.88860    0.32149    0.63446    1.000
    Si5332   Si       0.89143    0.26043    0.66007    1.000
    N5333    N        0.92902    0.49130    0.62983    1.000
    Si5334   Si       0.92514    0.40270    0.73955    1.000
    N5335    N        0.89618    0.43352    0.73545    1.000
    N5336    N        0.87790    0.46107    0.67298    1.000
    Si5337   Si       0.90644    0.49384    0.66817    1.000
    N5338    N        0.89968    0.32146    0.83396    1.000
    Si5339   Si       0.90685    0.27964    0.83714    1.000
    Si5340   Si       0.91805    0.26559    0.77248    1.000
    N5341    N        0.90919    0.30662    0.75989    1.000
    Si5342   Si       0.87900    0.33816    0.75369    1.000
    N5343    N        0.90005    0.45084    0.80721    1.000
    Si5344   Si       0.89872    0.46356    0.76497    1.000
    N5345    N        0.91808    0.38930    0.84080    1.000
    N5346    N        0.92841    0.49446    0.76530    1.000
    N5347    N        0.92760    0.27753    0.87652    1.000
    N5348    N        0.91165    0.36739    0.96662    1.000
    Si5349   Si       0.87108    0.36959    0.95311    1.000
    N5350    N        0.92850    0.40818    0.90197    1.000
    Si5351   Si       0.88893    0.39967    0.88023    1.000
    Si5352   Si       0.89274    0.46009    0.97694    1.000
    N5353    N        0.92098    0.47781    0.88228    1.000
    N5354    N        0.89027    0.50325    0.98863    1.000
    Si5355   Si       0.87635    0.47919    0.89146    1.000
    N5356    N        0.89209    0.45571    0.93464    1.000
    Si5357   Si       0.93038    0.44939    0.91460    1.000
    N5358    N        0.90804    0.58254    0.05631    1.000
    Si5359   Si       0.88498    0.61208    0.07853    1.000
    Si5360   Si       0.91926    0.54673    0.07869    1.000
    Si5361   Si       0.92295    0.59729    0.02004    1.000
    N5362    N        0.87857    0.53481    0.08596    1.000
    N5363    N        0.87491    0.59530    0.11710    1.000
    N5364    N        0.89551    0.62631    0.00108    1.000
    N5365    N        0.88034    0.69193    0.03208    1.000
    Si5366   Si       0.89644    0.72979    0.01802    1.000
    N5367    N        0.91355    0.72272    0.07937    1.000
    Si5368   Si       0.89177    0.68681    0.07400    1.000
    N5369    N        0.90875    0.64714    0.07030    1.000
    N5370    N        0.92287    0.55654    0.21540    1.000
    N5371    N        0.89308    0.62209    0.22546    1.000
    Si5372   Si       0.89090    0.53482    0.23619    1.000
    Si5373   Si       0.88114    0.60936    0.15773    1.000
    N5374    N        0.92553    0.60165    0.16697    1.000
    Si5375   Si       0.92877    0.59889    0.20978    1.000
    N5376    N        0.87153    0.64922    0.17099    1.000
    N5377    N        0.91573    0.69267    0.14353    1.000
    N5378    N        0.91409    0.69601    0.20862    1.000
    Si5379   Si       0.88257    0.66526    0.21123    1.000
    Si5380   Si       0.87562    0.68325    0.14506    1.000
    N5381    N        0.90924    0.75599    0.16908    1.000
    Si5382   Si       0.88336    0.58697    0.28947    1.000
    Si5383   Si       0.89947    0.51902    0.31475    1.000
    N5384    N        0.91037    0.51629    0.27123    1.000
    N5385    N        0.92552    0.59986    0.29181    1.000
    N5386    N        0.91592    0.67073    0.27508    1.000
    Si5387   Si       0.88356    0.70991    0.34919    1.000
    N5388    N        0.89219    0.75034    0.33360    1.000
    N5389    N        0.92265    0.69439    0.36241    1.000
    Si5390   Si       0.87449    0.66465    0.28466    1.000
    Si5391   Si       0.93066    0.70187    0.24962    1.000
    N5392    N        0.92831    0.73882    0.27288    1.000
    Si5393   Si       0.92092    0.54614    0.41577    1.000
    Si5394   Si       0.90830    0.61225    0.46512    1.000
    N5395    N        0.90744    0.58823    0.42871    1.000
    N5396    N        0.88059    0.55074    0.38833    1.000
    Si5397   Si       0.88321    0.75009    0.48198    1.000
    N5398    N        0.88659    0.64943    0.46557    1.000
    N5399    N        0.89127    0.74397    0.43959    1.000
    Si5400   Si       0.89942    0.67763    0.49612    1.000
    N5401    N        0.90471    0.60136    0.58118    1.000
    Si5402   Si       0.91250    0.61541    0.54102    1.000
    Si5403   Si       0.91994    0.52520    0.60041    1.000
    N5404    N        0.89783    0.59385    0.50395    1.000
    N5405    N        0.87860    0.53380    0.58992    1.000
    Si5406   Si       0.91898    0.62778    0.61344    1.000
    N5407    N        0.88026    0.53056    0.51222    1.000
    Si5408   Si       0.91038    0.50728    0.52845    1.000
    N5409    N        0.90042    0.65660    0.53373    1.000
    N5410    N        0.88878    0.71328    0.57978    1.000
    N5411    N        0.92108    0.75674    0.50454    1.000
    Si5412   Si       0.89120    0.69177    0.61918    1.000
    N5413    N        0.89449    0.53582    0.67478    1.000
    Si5414   Si       0.91254    0.61500    0.71664    1.000
    Si5415   Si       0.91885    0.56873    0.66070    1.000
    N5416    N        0.89857    0.60620    0.64917    1.000
    N5417    N        0.92195    0.66689    0.63533    1.000
    N5418    N        0.92533    0.65626    0.71319    1.000
    Si5419   Si       0.89511    0.73432    0.69131    1.000
    N5420    N        0.88778    0.71548    0.73303    1.000
    Si5421   Si       0.92694    0.69604    0.72979    1.000
    N5422    N        0.88255    0.71678    0.65196    1.000
    N5423    N        0.90623    0.60070    0.82531    1.000
    Si5424   Si       0.89417    0.59108    0.78473    1.000
    Si5425   Si       0.90351    0.51523    0.79227    1.000
    N5426    N        0.88039    0.55198    0.78989    1.000
    N5427    N        0.92755    0.52330    0.82660    1.000
    Si5428   Si       0.87392    0.60511    0.85711    1.000
    N5429    N        0.92503    0.59718    0.75443    1.000
    Si5430   Si       0.92988    0.56481    0.83981    1.000
    N5431    N        0.91647    0.71681    0.86295    1.000
    N5432    N        0.88341    0.66621    0.82620    1.000
    Si5433   Si       0.91684    0.64179    0.83980    1.000
    Si5434   Si       0.87750    0.69978    0.85169    1.000
    Si5435   Si       0.89319    0.61458    0.95938    1.000
    Si5436   Si       0.89067    0.55274    0.91208    1.000
    N5437    N        0.92523    0.56818    0.88443    1.000
    N5438    N        0.87349    0.57728    0.94583    1.000
    Si5439   Si       0.92643    0.52436    0.97640    1.000
    N5440    N        0.90182    0.63481    0.88129    1.000
    N5441    N        0.88773    0.73030    0.97455    1.000
    Si5442   Si       0.88757    0.66559    0.91057    1.000
    N5443    N        0.92145    0.68427    0.93123    1.000
    N5444    N        0.90148    0.84550    0.04340    1.000
    Si5445   Si       0.91237    0.86829    0.07874    1.000
    N5446    N        0.88273    0.86406    0.11037    1.000
    N5447    N        0.92090    0.79091    0.08085    1.000
    Si5448   Si       0.90957    0.80280    0.03980    1.000
    N5449    N        0.88139    0.76684    0.03700    1.000
    Si5450   Si       0.89003    0.76043    0.08224    1.000
    N5451    N        0.90782    0.91075    0.06807    1.000
    Si5452   Si       0.90181    0.97488    0.00749    1.000
    N5453    N        0.87717    0.96948    0.04337    1.000
    Si5454   Si       0.87113    0.92634    0.05226    1.000
    N5455    N        0.90613    0.80702    0.21255    1.000
    Si5456   Si       0.89523    0.85405    0.15122    1.000
    N5457    N        0.92019    0.81936    0.14600    1.000
    Si5458   Si       0.93060    0.79233    0.17874    1.000
    N5459    N        0.91589    0.88321    0.17466    1.000
    Si5460   Si       0.91548    0.99293    0.17618    1.000
    N5461    N        0.87384    0.00501    0.17202    1.000
    N5462    N        0.88794    0.92452    0.22062    1.000
    N5463    N        0.92089    0.00418    0.21829    1.000
    N5464    N        0.92487    0.95301    0.16467    1.000
    Si5465   Si       0.91804    0.90105    0.24455    1.000
    Si5466   Si       0.89666    0.92231    0.17654    1.000
    N5467    N        0.90110    0.80368    0.28480    1.000
    N5468    N        0.91443    0.81874    0.34855    1.000
    Si5469   Si       0.87861    0.83546    0.26594    1.000
    Si5470   Si       0.90135    0.77993    0.36303    1.000
    Si5471   Si       0.90708    0.88018    0.30748    1.000
    Si5472   Si       0.89552    0.76107    0.29209    1.000
    Si5473   Si       0.93264    0.85648    0.35864    1.000
    N5474    N        0.91148    0.86067    0.25047    1.000
    N5475    N        0.90259    0.88854    0.35018    1.000
    N5476    N        0.91355    0.91816    0.28462    1.000
    N5477    N        0.92833    0.97717    0.32098    1.000
    N5478    N        0.92840    0.85431    0.40112    1.000
    N5479    N        0.92214    0.80711    0.45329    1.000
    Si5480   Si       0.89063    0.82253    0.47918    1.000
    Si5481   Si       0.92753    0.76861    0.43277    1.000
    N5482    N        0.91923    0.98055    0.49594    1.000
    N5483    N        0.91342    0.93762    0.44536    1.000
    N5484    N        0.87707    0.93976    0.38830    1.000
    Si5485   Si       0.91553    0.95074    0.40500    1.000
    Si5486   Si       0.88730    0.95936    0.47214    1.000
    N5487    N        0.89961    0.85744    0.57531    1.000
    N5488    N        0.89646    0.78386    0.56832    1.000
    N5489    N        0.90894    0.82188    0.52029    1.000
    Si5490   Si       0.92186    0.84800    0.61148    1.000
    Si5491   Si       0.88287    0.82325    0.55569    1.000
    Si5492   Si       0.92703    0.78448    0.53790    1.000
    Si5493   Si       0.91665    0.89138    0.55582    1.000
    N5494    N        0.90433    0.90289    0.51616    1.000
    Si5495   Si       0.90828    0.96717    0.57735    1.000
    N5496    N        0.89138    0.98009    0.61523    1.000
    N5497    N        0.91960    0.92621    0.58040    1.000
    N5498    N        0.87848    0.98423    0.55002    1.000
    Si5499   Si       0.91060    0.00683    0.52886    1.000
    N5500    N        0.90091    0.82040    0.63677    1.000
    N5501    N        0.91508    0.77339    0.69349    1.000
    N5502    N        0.87984    0.86545    0.68423    1.000
    N5503    N        0.89920    0.82629    0.74076    1.000
    Si5504   Si       0.93126    0.79899    0.66281    1.000
    N5505    N        0.89354    0.93155    0.66875    1.000
    Si5506   Si       0.91622    0.99597    0.71777    1.000
    N5507    N        0.92469    0.95441    0.72979    1.000
    Si5508   Si       0.91098    0.96516    0.64920    1.000
    N5509    N        0.92456    0.99961    0.67436    1.000
    Si5510   Si       0.91304    0.89220    0.67434    1.000
    N5511    N        0.87381    0.00398    0.72442    1.000
    Si5512   Si       0.90310    0.80573    0.78036    1.000
    N5513    N        0.91317    0.83951    0.80627    1.000
    Si5514   Si       0.92079    0.82043    0.84366    1.000
    N5515    N        0.91305    0.77869    0.83154    1.000
    Si5516   Si       0.90394    0.88186    0.80674    1.000
    N5517    N        0.89056    0.82835    0.87327    1.000
    Si5518   Si       0.89644    0.92904    0.75460    1.000
    N5519    N        0.90824    0.89456    0.84785    1.000
    N5520    N        0.90786    0.96431    0.84008    1.000
    Si5521   Si       0.90365    0.98141    0.80207    1.000
    N5522    N        0.92605    0.91014    0.78055    1.000
    N5523    N        0.87754    0.95945    0.77795    1.000
    Si5524   Si       0.87168    0.96809    0.86363    1.000
    Si5525   Si       0.88880    0.87120    0.87961    1.000
    N5526    N        0.91662    0.86932    0.91380    1.000
    N5527    N        0.89107    0.77674    0.91930    1.000
    Si5528   Si       0.90480    0.87513    0.95619    1.000
    N5529    N        0.87212    0.85092    0.97060    1.000
    N5530    N        0.87199    0.94094    0.89588    1.000
    N5531    N        0.90175    0.98240    0.93182    1.000
    N5532    N        0.92374    0.00555    0.98657    1.000
    N5533    N        0.89842    0.91819    0.95465    1.000
    Si5534   Si       0.90689    0.94171    0.92111    1.000
    N5535    N        0.96629    0.03977    0.03115    1.000
    Si5536   Si       0.97135    0.04839    0.07485    1.000
    N5537    N        0.93456    0.05919    0.09490    1.000
    Si5538   Si       0.95911    0.11759    0.06074    1.000
    Si5539   Si       0.98563    0.10375    0.11497    1.000
    N5540    N        0.96144    0.13617    0.10032    1.000
    Si5541   Si       0.95844    0.18450    0.03000    1.000
    N5542    N        0.93618    0.19492    0.11115    1.000
    N5543    N        0.97895    0.14621    0.03365    1.000
    Si5544   Si       0.97309    0.17359    0.12105    1.000
    N5545    N        0.96853    0.08276    0.14894    1.000
    N5546    N        0.97127    0.08196    0.22277    1.000
    N5547    N        0.93704    0.01794    0.14749    1.000
    Si5548   Si       0.93352    0.06207    0.13735    1.000
    N5549    N        0.96893    0.20886    0.20856    1.000
    Si5550   Si       0.96511    0.16715    0.19547    1.000
    N5551    N        0.98518    0.15800    0.15937    1.000
    Si5552   Si       0.98225    0.23057    0.24566    1.000
    N5553    N        0.95473    0.25185    0.13983    1.000
    N5554    N        0.98150    0.15042    0.23242    1.000
    N5555    N        0.95259    0.11542    0.28898    1.000
    N5556    N        0.95190    0.02824    0.27006    1.000
    Si5557   Si       0.95213    0.07324    0.35868    1.000
    N5558    N        0.93865    0.03782    0.33904    1.000
    Si5559   Si       0.98208    0.05233    0.25123    1.000
    N5560    N        0.92587    0.10630    0.36068    1.000
    Si5561   Si       0.92751    0.13037    0.32065    1.000
    Si5562   Si       0.95527    0.11648    0.24355    1.000
    N5563    N        0.93636    0.24464    0.34249    1.000
    Si5564   Si       0.97693    0.25208    0.36394    1.000
    N5565    N        0.93839    0.16869    0.33768    1.000
    N5566    N        0.95077    0.24500    0.27150    1.000
    Si5567   Si       0.96668    0.03417    0.47370    1.000
    N5568    N        0.96239    0.05250    0.39634    1.000
    N5569    N        0.93223    0.04364    0.45211    1.000
    Si5570   Si       0.95064    0.25320    0.43722    1.000
    Si5571   Si       0.96518    0.17047    0.37118    1.000
    N5572    N        0.97975    0.21029    0.37572    1.000
    Si5573   Si       0.96093    0.17456    0.44361    1.000
    N5574    N        0.94130    0.15956    0.40611    1.000
    N5575    N        0.96592    0.21596    0.45168    1.000
    N5576    N        0.93931    0.16101    0.47636    1.000
    Si5577   Si       0.97969    0.23625    0.49265    1.000
    N5578    N        0.96027    0.03480    0.51693    1.000
    Si5579   Si       0.97131    0.06400    0.59704    1.000
    N5580    N        0.95219    0.08759    0.56702    1.000
    Si5581   Si       0.93964    0.12858    0.57453    1.000
    Si5582   Si       0.93652    0.06895    0.53123    1.000
    Si5583   Si       0.97551    0.01015    0.55010    1.000
    N5584    N        0.95382    0.21620    0.57464    1.000
    Si5585   Si       0.94978    0.19218    0.53917    1.000
    N5586    N        0.96920    0.14859    0.60095    1.000
    Si5587   Si       0.96849    0.19281    0.60918    1.000
    N5588    N        0.93933    0.22576    0.51140    1.000
    Si5589   Si       0.96386    0.25864    0.56682    1.000
    N5590    N        0.99132    0.18076    0.53249    1.000
    N5591    N        0.93770    0.05110    0.62459    1.000
    Si5592   Si       0.95115    0.02995    0.65994    1.000
    Si5593   Si       0.96319    0.05888    0.72938    1.000
    Si5594   Si       0.97919    0.09629    0.66777    1.000
    N5595    N        0.96366    0.05947    0.68604    1.000
    N5596    N        0.94240    0.11888    0.66795    1.000
    N5597    N        0.94660    0.02037    0.73985    1.000
    N5598    N        0.97271    0.19792    0.70090    1.000
    Si5599   Si       0.95826    0.19422    0.74421    1.000
    Si5600   Si       0.95055    0.21923    0.66895    1.000
    N5601    N        0.93844    0.18859    0.63977    1.000
    N5602    N        0.97287    0.25512    0.65907    1.000
    N5603    N        0.94314    0.23549    0.74924    1.000
    Si5604   Si       0.95030    0.11591    0.77704    1.000
    Si5605   Si       0.96546    0.11901    0.84837    1.000
    N5606    N        0.97291    0.10031    0.80771    1.000
    N5607    N        0.98329    0.02775    0.80881    1.000
    N5608    N        0.93588    0.08648    0.74697    1.000
    N5609    N        0.93812    0.09474    0.86930    1.000
    N5610    N        0.95414    0.16086    0.85143    1.000
    N5611    N        0.96801    0.15249    0.76071    1.000
    Si5612   Si       0.95070    0.05411    0.88251    1.000
    N5613    N        0.95458    0.12824    0.97472    1.000
    N5614    N        0.93425    0.04075    0.92283    1.000
    Si5615   Si       0.93690    0.23920    0.89086    1.000
    N5616    N        0.94976    0.19281    0.98658    1.000
    N5617    N        0.97370    0.22290    0.87534    1.000
    Si5618   Si       0.95005    0.16491    0.95041    1.000
    N5619    N        0.97993    0.16115    0.91650    1.000
    Si5620   Si       0.98449    0.18098    0.87656    1.000
    Si5621   Si       0.94554    0.23377    0.97440    1.000
    N5622    N        0.98533    0.25237    0.97490    1.000
    N5623    N        0.95322    0.30752    0.04164    1.000
    Si5624   Si       0.95171    0.28477    0.08045    1.000
    Si5625   Si       0.97465    0.34642    0.03941    1.000
    N5626    N        0.95699    0.37576    0.01150    1.000
    N5627    N        0.96978    0.36694    0.07671    1.000
    Si5628   Si       0.96085    0.35595    0.11715    1.000
    N5629    N        0.94314    0.31616    0.11188    1.000
    Si5630   Si       0.92740    0.29727    0.00632    1.000
    N5631    N        0.95990    0.44115    0.05530    1.000
    Si5632   Si       0.93952    0.41687    0.02609    1.000
    Si5633   Si       0.93690    0.47612    0.07613    1.000
    N5634    N        0.95340    0.48582    0.11668    1.000
    N5635    N        0.97685    0.34969    0.21593    1.000
    Si5636   Si       0.94945    0.28413    0.16870    1.000
    Si5637   Si       0.93497    0.34660    0.20557    1.000
    N5638    N        0.93201    0.26194    0.20191    1.000
    N5639    N        0.96627    0.50301    0.22955    1.000
    Si5640   Si       0.94605    0.46700    0.15479    1.000
    N5641    N        0.97705    0.45542    0.18213    1.000
    Si5642   Si       0.97355    0.46120    0.22504    1.000
    N5643    N        0.96949    0.35875    0.33252    1.000
    N5644    N        0.94568    0.37736    0.27057    1.000
    Si5645   Si       0.96002    0.28016    0.29691    1.000
    N5646    N        0.98075    0.28796    0.33426    1.000
    Si5647   Si       0.98090    0.35303    0.25935    1.000
    N5648    N        0.98656    0.31195    0.27735    1.000
    Si5649   Si       0.94226    0.38399    0.31162    1.000
    N5650    N        0.97754    0.48702    0.29541    1.000
    Si5651   Si       0.97606    0.44249    0.35551    1.000
    N5652    N        0.95561    0.42521    0.32053    1.000
    Si5653   Si       0.97078    0.44544    0.28427    1.000
    N5654    N        0.95672    0.48061    0.36681    1.000
    N5655    N        0.94000    0.44106    0.25226    1.000
    Si5656   Si       0.98775    0.37692    0.37112    1.000
    Si5657   Si       0.94940    0.31435    0.39603    1.000
    Si5658   Si       0.96190    0.31827    0.47025    1.000
    N5659    N        0.97177    0.27558    0.46948    1.000
    N5660    N        0.96305    0.27308    0.39926    1.000
    N5661    N        0.98513    0.33870    0.39259    1.000
    Si5662   Si       0.94207    0.42185    0.42025    1.000
    N5663    N        0.93677    0.49849    0.49392    1.000
    Si5664   Si       0.98399    0.45071    0.47759    1.000
    N5665    N        0.97175    0.41322    0.38877    1.000
    N5666    N        0.95082    0.45222    0.44883    1.000
    Si5667   Si       0.97481    0.35761    0.54013    1.000
    N5668    N        0.95484    0.33045    0.51304    1.000
    N5669    N        0.98145    0.34040    0.58061    1.000
    Si5670   Si       0.95689    0.35163    0.61634    1.000
    N5671    N        0.98415    0.27615    0.59911    1.000
    N5672    N        0.95005    0.39147    0.54654    1.000
    Si5673   Si       0.94726    0.41897    0.58154    1.000
    N5674    N        0.96823    0.45737    0.58569    1.000
    N5675    N        0.96344    0.39564    0.61530    1.000
    N5676    N        0.98854    0.44602    0.51938    1.000
    Si5677   Si       0.95643    0.29368    0.66788    1.000
    N5678    N        0.95967    0.30284    0.71133    1.000
    N5679    N        0.97620    0.32462    0.64572    1.000
    Si5680   Si       0.93895    0.33204    0.73663    1.000
    N5681    N        0.97355    0.35798    0.74506    1.000
    Si5682   Si       0.97088    0.48155    0.62213    1.000
    Si5683   Si       0.95719    0.50095    0.73293    1.000
    N5684    N        0.95738    0.41403    0.71319    1.000
    N5685    N        0.93796    0.48639    0.69656    1.000
    Si5686   Si       0.96525    0.45266    0.69339    1.000
    N5687    N        0.98344    0.45222    0.65416    1.000
    Si5688   Si       0.99257    0.38727    0.71411    1.000
    N5689    N        0.96253    0.33897    0.80919    1.000
    Si5690   Si       0.97413    0.29708    0.80764    1.000
    Si5691   Si       0.97313    0.37364    0.78535    1.000
    N5692    N        0.93887    0.27236    0.80894    1.000
    Si5693   Si       0.93289    0.34840    0.83976    1.000
    N5694    N        0.96262    0.45438    0.82844    1.000
    Si5695   Si       0.94661    0.48992    0.84915    1.000
    N5696    N        0.94086    0.40311    0.78091    1.000
    Si5697   Si       0.93169    0.42491    0.81763    1.000
    N5698    N        0.95468    0.34254    0.87691    1.000
    N5699    N        0.98094    0.36575    0.93391    1.000
    N5700    N        0.95444    0.31449    0.97402    1.000
    Si5701   Si       0.96338    0.30140    0.87988    1.000
    Si5702   Si       0.95445    0.35836    0.96880    1.000
    N5703    N        0.98393    0.29217    0.91537    1.000
    Si5704   Si       0.96165    0.38138    0.89586    1.000
    Si5705   Si       0.98689    0.29312    0.95760    1.000
    N5706    N        0.96458    0.45810    0.93747    1.000
    Si5707   Si       0.96468    0.46128    0.97956    1.000
    N5708    N        0.96131    0.50165    0.99383    1.000
    N5709    N        0.92680    0.44251    0.99319    1.000
    N5710    N        0.94601    0.55926    0.11098    1.000
    N5711    N        0.95933    0.61829    0.03046    1.000
    N5712    N        0.96291    0.62820    0.10428    1.000
    Si5713   Si       0.97828    0.51979    0.02954    1.000
    N5714    N        0.94303    0.51690    0.05794    1.000
    N5715    N        0.93377    0.56583    0.99149    1.000
    Si5716   Si       0.95123    0.64272    0.06531    1.000
    Si5717   Si       0.95687    0.72195    0.08206    1.000
    N5718    N        0.96388    0.68388    0.05944    1.000
    Si5719   Si       0.96977    0.69380    0.01722    1.000
    N5720    N        0.93969    0.72892    0.01171    1.000
    N5721    N        0.97936    0.75150    0.05671    1.000
    N5722    N        0.97900    0.73598    0.11763    1.000
    Si5723   Si       0.97432    0.52545    0.11935    1.000
    N5724    N        0.95569    0.62468    0.23129    1.000
    Si5725   Si       0.94746    0.52542    0.19609    1.000
    Si5726   Si       0.95180    0.59608    0.13361    1.000
    N5727    N        0.97554    0.53319    0.16409    1.000
    Si5728   Si       0.93238    0.71682    0.17550    1.000
    N5729    N        0.97427    0.70858    0.18164    1.000
    Si5730   Si       0.95440    0.57274    0.30865    1.000
    Si5731   Si       0.96519    0.52124    0.35466    1.000
    N5732    N        0.97645    0.55332    0.27466    1.000
    Si5733   Si       0.95551    0.51432    0.26991    1.000
    N5734    N        0.93806    0.53739    0.32461    1.000
    N5735    N        0.98746    0.58794    0.33367    1.000
    Si5736   Si       0.94113    0.63451    0.27249    1.000
    N5737    N        0.97413    0.70877    0.31835    1.000
    Si5738   Si       0.96579    0.69450    0.35822    1.000
    Si5739   Si       0.96508    0.74528    0.29576    1.000
    N5740    N        0.97576    0.64550    0.29860    1.000
    N5741    N        0.98247    0.65526    0.36867    1.000
    N5742    N        0.97268    0.69401    0.24924    1.000
    Si5743   Si       0.97073    0.52192    0.48122    1.000
    N5744    N        0.95531    0.54711    0.38646    1.000
    N5745    N        0.95334    0.54358    0.44760    1.000
    N5746    N        0.94994    0.62409    0.47165    1.000
    Si5747   Si       0.98189    0.55776    0.41776    1.000
    Si5748   Si       0.95175    0.73218    0.48642    1.000
    Si5749   Si       0.98564    0.71856    0.42414    1.000
    N5750    N        0.96160    0.74559    0.44583    1.000
    Si5751   Si       0.96569    0.66478    0.47070    1.000
    N5752    N        0.97391    0.67671    0.43025    1.000
    N5753    N        0.93738    0.69233    0.48630    1.000
    N5754    N        0.98354    0.72857    0.38053    1.000
    N5755    N        0.95562    0.61257    0.53539    1.000
    Si5756   Si       0.97666    0.53955    0.55200    1.000
    N5757    N        0.97670    0.55485    0.51055    1.000
    Si5758   Si       0.98209    0.61453    0.56844    1.000
    N5759    N        0.98643    0.57158    0.57896    1.000
    Si5760   Si       0.97260    0.59724    0.49823    1.000
    N5761    N        0.93751    0.52322    0.56149    1.000
    N5762    N        0.96190    0.63420    0.60198    1.000
    Si5763   Si       0.98171    0.55818    0.62179    1.000
    N5764    N        0.93911    0.55546    0.62593    1.000
    Si5765   Si       0.98100    0.60849    0.68516    1.000
    Si5766   Si       0.95959    0.57786    0.73517    1.000
    N5767    N        0.94197    0.58620    0.69434    1.000
    N5768    N        0.97300    0.53887    0.74693    1.000
    Si5769   Si       0.96316    0.73681    0.66212    1.000
    N5770    N        0.93720    0.71263    0.69021    1.000
    Si5771   Si       0.98261    0.66293    0.62855    1.000
    N5772    N        0.97510    0.64820    0.66783    1.000
    Si5773   Si       0.93980    0.67183    0.67502    1.000
    N5774    N        0.98329    0.70571    0.64037    1.000
    N5775    N        0.97117    0.57789    0.83200    1.000
    Si5776   Si       0.98049    0.62025    0.83830    1.000
    N5777    N        0.97170    0.51766    0.87057    1.000
    N5778    N        0.95209    0.70290    0.76363    1.000
    Si5779   Si       0.97125    0.69058    0.80139    1.000
    N5780    N        0.95601    0.65225    0.82122    1.000
    N5781    N        0.96463    0.73312    0.81364    1.000
    Si5782   Si       0.96416    0.74396    0.77057    1.000
    Si5783   Si       0.94074    0.74742    0.84842    1.000
    N5784    N        0.93287    0.61625    0.94167    1.000
    N5785    N        0.97883    0.56729    0.92061    1.000
    Si5786   Si       0.95371    0.53879    0.90241    1.000
    Si5787   Si       0.95635    0.58057    0.95643    1.000
    Si5788   Si       0.93419    0.61069    0.89724    1.000
    N5789    N        0.97125    0.62640    0.88091    1.000
    N5790    N        0.92644    0.53310    0.93545    1.000
    N5791    N        0.95631    0.74440    0.94638    1.000
    N5792    N        0.95094    0.67493    0.98450    1.000
    Si5793   Si       0.95244    0.65635    0.94645    1.000
    Si5794   Si       0.92949    0.71228    0.96609    1.000
    N5795    N        0.94995    0.85402    0.09412    1.000
    Si5796   Si       0.94063    0.81515    0.10959    1.000
    N5797    N        0.93785    0.79603    0.00851    1.000
    N5798    N        0.98319    0.80332    0.11097    1.000
    Si5799   Si       0.96445    0.76295    0.01755    1.000
    N5800    N        0.95604    0.96797    0.08640    1.000
    Si5801   Si       0.94135    0.93520    0.06035    1.000
    Si5802   Si       0.97642    0.94550    0.01016    1.000
    N5803    N        0.98145    0.91911    0.04863    1.000
    N5804    N        0.93452    0.95015    0.01886    1.000
    Si5805   Si       0.96220    0.99502    0.12104    1.000
    N5806    N        0.96430    0.83940    0.20456    1.000
    N5807    N        0.97352    0.78470    0.17395    1.000
    Si5808   Si       0.93801    0.82770    0.23789    1.000
    Si5809   Si       0.95544    0.88000    0.18875    1.000
    Si5810   Si       0.95747    0.99561    0.23925    1.000
    Si5811   Si       0.96852    0.94576    0.16601    1.000
    N5812    N        0.97527    0.96596    0.20591    1.000
    N5813    N        0.95571    0.90381    0.22624    1.000
    N5814    N        0.97796    0.90446    0.15974    1.000
    Si5815   Si       0.98198    0.93624    0.23591    1.000
    N5816    N        0.95737    0.77597    0.32526    1.000
    N5817    N        0.96496    0.81425    0.26794    1.000
    N5818    N        0.94297    0.85775    0.31418    1.000
    Si5819   Si       0.93802    0.81321    0.30633    1.000
    N5820    N        0.97992    0.86276    0.36459    1.000
    Si5821   Si       0.96916    0.76801    0.36672    1.000
    Si5822   Si       0.98053    0.87889    0.32256    1.000
    N5823    N        0.97095    0.92090    0.32371    1.000
    N5824    N        0.96506    0.95955    0.26697    1.000
    Si5825   Si       0.94806    0.99744    0.35455    1.000
    Si5826   Si       0.94318    0.94289    0.30006    1.000
    N5827    N        0.98978    0.98774    0.34735    1.000
    Si5828   Si       0.94523    0.83904    0.43621    1.000
    N5829    N        0.94277    0.87356    0.46389    1.000
    N5830    N        0.98644    0.82403    0.42918    1.000
    N5831    N        0.93326    0.77057    0.39116    1.000
    N5832    N        0.94917    0.92504    0.39714    1.000
    Si5833   Si       0.96301    0.96779    0.49590    1.000
    N5834    N        0.96566    0.92808    0.48510    1.000
    N5835    N        0.97998    0.99293    0.46267    1.000
    Si5836   Si       0.98332    0.90128    0.38734    1.000
    Si5837   Si       0.95457    0.91276    0.44431    1.000
    N5838    N        0.92657    0.99075    0.39301    1.000
    N5839    N        0.95896    0.83388    0.59497    1.000
    Si5840   Si       0.96933    0.79064    0.60216    1.000
    N5841    N        0.96199    0.77885    0.56056    1.000
    Si5842   Si       0.98271    0.86536    0.57496    1.000
    N5843    N        0.95567    0.87726    0.54020    1.000
    N5844    N        0.93763    0.99365    0.56273    1.000
    Si5845   Si       0.94681    0.91551    0.61297    1.000
    Si5846   Si       0.94450    0.89458    0.50281    1.000
    N5847    N        0.98383    0.90200    0.59850    1.000
    N5848    N        0.95202    0.77136    0.63738    1.000
    N5849    N        0.95211    0.82359    0.69507    1.000
    Si5850   Si       0.97694    0.85896    0.70198    1.000
    Si5851   Si       0.93153    0.80224    0.72386    1.000
    N5852    N        0.92879    0.88301    0.63624    1.000
    Si5853   Si       0.95835    0.92953    0.71738    1.000
    N5854    N        0.95007    0.95012    0.63698    1.000
    N5855    N        0.94553    0.89081    0.70667    1.000
    N5856    N        0.98655    0.94675    0.69099    1.000
    Si5857   Si       0.98845    0.96433    0.65110    1.000
    N5858    N        0.93685    0.77830    0.76044    1.000
    N5859    N        0.95382    0.83727    0.86430    1.000
    N5860    N        0.94803    0.98084    0.79455    1.000
    Si5861   Si       0.95878    0.93851    0.78661    1.000
    N5862    N        0.96914    0.92727    0.82664    1.000
    N5863    N        0.98393    0.93509    0.75374    1.000
    N5864    N        0.98051    0.98627    0.86606    1.000
    Si5865   Si       0.95750    0.00328    0.83190    1.000
    Si5866   Si       0.93326    0.93004    0.85132    1.000
    Si5867   Si       0.97590    0.00645    0.77020    1.000
    N5868    N        0.93936    0.86428    0.97918    1.000
    Si5869   Si       0.95443    0.84623    0.90917    1.000
    N5870    N        0.95066    0.81294    0.93718    1.000
    Si5871   Si       0.95474    0.82282    0.98001    1.000
    Si5872   Si       0.93469    0.77411    0.91879    1.000
    N5873    N        0.95766    0.76726    0.88299    1.000
    Si5874   Si       0.98073    0.87657    0.97087    1.000
    N5875    N        0.98581    0.87137    0.92670    1.000
    N5876    N        0.97315    0.98170    0.93732    1.000
    Si5877   Si       0.93789    0.00337    0.94530    1.000
    N5878    N        0.94101    0.93558    0.89457    1.000
    Si5879   Si       0.97578    0.95872    0.90059    1.000
