# CIF file generated by openbabel 3.1.1, see https://openbabel.org
data_I
_chemical_name_common '3.01-50.aims'
_cell_length_a 39.9026
_cell_length_b 39.9026
_cell_length_c 39.9026
_cell_angle_alpha 90
_cell_angle_beta 90
_cell_angle_gamma 90
loop_
    _atom_site_label
    _atom_site_type_symbol
    _atom_site_fract_x
    _atom_site_fract_y
    _atom_site_fract_z
    _atom_site_occupancy
    N0       N        0.01734    0.09166    0.04805    1.000
    N1       N        0.00677    0.02324    0.06491    1.000
    Si2      Si       0.00244    0.06488    0.07811    1.000
    N3       N        0.02339    0.07773    0.11588    1.000
    Si4      Si       0.99371    0.09282    0.01108    1.000
    N5       N        0.01981    0.14337    0.10590    1.000
    N6       N        0.02213    0.20227    0.07828    1.000
    Si7      Si       0.03231    0.18461    0.03910    1.000
    N8       N        0.03710    0.20905    0.00431    1.000
    Si9      Si       0.99386    0.16973    0.08192    1.000
    N10      N        0.99260    0.16629    0.03831    1.000
    Si11     Si       0.00963    0.11467    0.13659    1.000
    N12      N        0.02633    0.03482    0.17317    1.000
    N13      N        0.03721    0.11359    0.17238    1.000
    Si14     Si       0.04191    0.02480    0.21368    1.000
    N15      N        0.00761    0.13644    0.22957    1.000
    N16      N        0.01990    0.25290    0.19850    1.000
    Si17     Si       0.01051    0.17805    0.23816    1.000
    N18      N        0.03774    0.18368    0.20470    1.000
    Si19     Si       0.00850    0.24705    0.15373    1.000
    Si20     Si       0.04375    0.13855    0.20659    1.000
    N21      N        0.02817    0.05114    0.31873    1.000
    Si22     Si       0.02275    0.09389    0.29966    1.000
    Si23     Si       0.01147    0.02095    0.29226    1.000
    N24      N        0.01504    0.12729    0.32731    1.000
    N25      N        0.99491    0.08394    0.27018    1.000
    Si26     Si       0.01331    0.11605    0.36984    1.000
    N27      N        0.02907    0.01240    0.25282    1.000
    Si28     Si       0.02559    0.16798    0.31788    1.000
    N29      N        0.00936    0.20387    0.33704    1.000
    Si30     Si       0.03520    0.23766    0.32970    1.000
    N31      N        0.03150    0.17930    0.27566    1.000
    Si32     Si       0.01887    0.05485    0.44878    1.000
    N33      N        0.03996    0.02132    0.46411    1.000
    N34      N        0.99425    0.03998    0.41496    1.000
    N35      N        0.02401    0.15200    0.39274    1.000
    N36      N        0.02455    0.22664    0.43821    1.000
    Si37     Si       0.02974    0.19740    0.46971    1.000
    N38      N        0.99838    0.25429    0.38566    1.000
    N39      N        0.99296    0.19093    0.49421    1.000
    Si40     Si       0.00721    0.08377    0.51577    1.000
    N41      N        0.01658    0.12505    0.50684    1.000
    Si42     Si       0.03913    0.09093    0.61382    1.000
    N43      N        0.01661    0.01851    0.57855    1.000
    N44      N        0.99875    0.11003    0.60196    1.000
    N45      N        0.04430    0.06355    0.51927    1.000
    Si46     Si       0.02708    0.02974    0.61966    1.000
    N47      N        0.02095    0.17465    0.56047    1.000
    Si48     Si       0.00718    0.21219    0.57974    1.000
    N49      N        0.01829    0.24422    0.55223    1.000
    Si50     Si       0.99792    0.16088    0.52500    1.000
    N51      N        0.02557    0.22403    0.61830    1.000
    Si52     Si       0.04399    0.25434    0.51541    1.000
    Si53     Si       0.03161    0.08703    0.72901    1.000
    N54      N        0.00990    0.06336    0.64083    1.000
    N55      N        0.00676    0.11312    0.70147    1.000
    N56      N        0.00641    0.05257    0.71578    1.000
    Si57     Si       0.99623    0.07513    0.68017    1.000
    Si58     Si       0.98902    0.15194    0.69570    1.000
    N59      N        0.00405    0.17833    0.72998    1.000
    N60      N        0.04349    0.23507    0.71337    1.000
    Si61     Si       0.00344    0.21764    0.71238    1.000
    Si62     Si       0.99578    0.20602    0.64203    1.000
    N63      N        0.01133    0.17144    0.66215    1.000
    Si64     Si       0.01414    0.04577    0.84718    1.000
    N65      N        0.01997    0.08836    0.77010    1.000
    Si66     Si       0.03489    0.11448    0.80233    1.000
    N67      N        0.00187    0.12636    0.83152    1.000
    N68      N        0.00124    0.01167    0.87045    1.000
    Si69     Si       0.01646    0.22813    0.82008    1.000
    N70      N        0.01905    0.19194    0.84486    1.000
    Si71     Si       0.01509    0.18229    0.77130    1.000
    N72      N        0.03889    0.21892    0.78147    1.000
    Si73     Si       0.03204    0.25388    0.75339    1.000
    N74      N        0.04317    0.15124    0.78221    1.000
    N75      N        0.01581    0.07995    0.87313    1.000
    N76      N        0.02020    0.11336    0.92342    1.000
    Si77     Si       0.03966    0.07556    0.90948    1.000
    N78      N        0.03709    0.03652    0.92499    1.000
    Si79     Si       0.01602    0.12471    0.87749    1.000
    N80      N        0.02775    0.11069    0.99236    1.000
    Si81     Si       0.00925    0.00697    0.91173    1.000
    Si82     Si       0.01313    0.25290    0.91484    1.000
    Si83     Si       0.00888    0.20330    0.97375    1.000
    Si84     Si       0.02954    0.13777    0.95739    1.000
    N85      N        0.02322    0.21667    0.93584    1.000
    N86      N        0.99288    0.16124    0.96700    1.000
    N87      N        0.01311    0.34631    0.07297    1.000
    N88      N        0.00396    0.27840    0.04256    1.000
    N89      N        0.04399    0.35657    0.01417    1.000
    Si90     Si       0.00380    0.36489    0.99968    1.000
    Si91     Si       0.04355    0.27103    0.05521    1.000
    N92      N        0.99719    0.26354    0.11550    1.000
    Si93     Si       0.99392    0.36987    0.10571    1.000
    N94      N        0.00166    0.47191    0.11198    1.000
    N95      N        0.02161    0.47080    0.02093    1.000
    Si96     Si       0.01262    0.43893    0.08604    1.000
    N97      N        0.01854    0.40380    0.10922    1.000
    Si98     Si       0.03899    0.29295    0.20744    1.000
    Si99     Si       0.00936    0.35840    0.17980    1.000
    N100     N        0.00535    0.31912    0.19764    1.000
    N101     N        0.04687    0.36855    0.16173    1.000
    Si102    Si       0.02183    0.42594    0.20484    1.000
    Si103    Si       0.01153    0.47488    0.15558    1.000
    N104     N        0.99591    0.45026    0.23233    1.000
    N105     N        0.03541    0.43927    0.16762    1.000
    N106     N        0.99678    0.38952    0.20715    1.000
    N107     N        0.99893    0.50200    0.19064    1.000
    N108     N        0.01749    0.34256    0.29332    1.000
    Si109    Si       0.01003    0.29887    0.28366    1.000
    N110     N        0.00785    0.27272    0.31887    1.000
    N111     N        0.01962    0.32284    0.36097    1.000
    Si112    Si       0.04511    0.33532    0.32793    1.000
    Si113    Si       0.99429    0.28744    0.35982    1.000
    N114     N        0.04299    0.29513    0.25137    1.000
    Si115    Si       0.01479    0.47322    0.26572    1.000
    N116     N        0.99726    0.46204    0.30308    1.000
    N117     N        0.01788    0.48133    0.37528    1.000
    N118     N        0.01353    0.31570    0.42667    1.000
    Si119    Si       0.02421    0.34498    0.39711    1.000
    N120     N        0.02367    0.27938    0.48586    1.000
    Si121    Si       0.04197    0.29424    0.45010    1.000
    N122     N        0.99891    0.38017    0.39975    1.000
    Si123    Si       0.03287    0.40673    0.41335    1.000
    N124     N        0.01329    0.43585    0.43865    1.000
    Si125    Si       0.03844    0.44106    0.47521    1.000
    N126     N        0.02033    0.48371    0.47885    1.000
    Si127    Si       0.01878    0.28209    0.57552    1.000
    Si128    Si       0.01259    0.31080    0.51352    1.000
    N129     N        0.03983    0.30572    0.54485    1.000
    N130     N        0.00167    0.34963    0.49925    1.000
    N131     N        0.01275    0.37251    0.61987    1.000
    N132     N        0.04224    0.38053    0.54771    1.000
    Si133    Si       0.03023    0.38295    0.50676    1.000
    Si134    Si       0.04429    0.38563    0.59076    1.000
    N135     N        0.02934    0.42981    0.58603    1.000
    N136     N        0.01834    0.48581    0.54642    1.000
    Si137    Si       0.02851    0.44380    0.54500    1.000
    N138     N        0.01000    0.42472    0.50982    1.000
    N139     N        0.00521    0.49171    0.61794    1.000
    Si140    Si       0.03339    0.45894    0.62026    1.000
    Si141    Si       0.00121    0.50935    0.57899    1.000
    Si142    Si       0.99784    0.33406    0.62660    1.000
    Si143    Si       0.02385    0.32809    0.69194    1.000
    N144     N        0.02839    0.31488    0.65047    1.000
    N145     N        0.01919    0.37312    0.68815    1.000
    N146     N        0.99757    0.33071    0.72621    1.000
    Si147    Si       0.00582    0.37361    0.73031    1.000
    N148     N        0.98934    0.46495    0.70330    1.000
    Si149    Si       0.00239    0.39691    0.65534    1.000
    Si150    Si       0.99813    0.44029    0.74093    1.000
    Si151    Si       0.01612    0.49858    0.70462    1.000
    N152     N        0.03040    0.43128    0.65290    1.000
    N153     N        0.04066    0.43708    0.72878    1.000
    N154     N        0.00936    0.30718    0.84621    1.000
    N155     N        0.02755    0.29626    0.77581    1.000
    N156     N        0.03596    0.37076    0.83163    1.000
    Si157    Si       0.03916    0.29198    0.81777    1.000
    Si158    Si       0.02013    0.34411    0.86373    1.000
    N159     N        0.03755    0.37645    0.76052    1.000
    Si160    Si       0.01271    0.38595    0.79844    1.000
    N161     N        0.00880    0.42842    0.78461    1.000
    N162     N        0.00909    0.35890    0.95655    1.000
    Si163    Si       0.02285    0.32391    0.93504    1.000
    N164     N        0.99515    0.29255    0.93114    1.000
    N165     N        0.04557    0.34581    0.90021    1.000
    N166     N        0.99279    0.40684    0.99572    1.000
    N167     N        0.00471    0.43793    0.87752    1.000
    Si168    Si       0.04038    0.43983    0.90262    1.000
    N169     N        0.04655    0.48310    0.90334    1.000
    N170     N        0.03382    0.42592    0.94358    1.000
    Si171    Si       0.99831    0.40147    0.95044    1.000
    N172     N        0.03035    0.58907    0.05910    1.000
    Si173    Si       0.03652    0.55775    0.08894    1.000
    N174     N        0.00127    0.54423    0.00798    1.000
    N175     N        0.99916    0.54763    0.10922    1.000
    N176     N        0.99922    0.61950    0.01296    1.000
    Si177    Si       0.99619    0.58170    0.03219    1.000
    N178     N        0.04315    0.52308    0.06148    1.000
    N179     N        0.04373    0.60175    0.12350    1.000
    Si180    Si       0.01289    0.51127    0.03456    1.000
    N181     N        0.02425    0.65876    0.06232    1.000
    Si182    Si       0.02396    0.69455    0.08850    1.000
    Si183    Si       0.99902    0.73377    0.03566    1.000
    N184     N        0.99418    0.72279    0.07880    1.000
    Si185    Si       0.99395    0.65866    0.03105    1.000
    N186     N        0.03849    0.75367    0.02845    1.000
    N187     N        0.99248    0.69961    0.01148    1.000
    N188     N        0.02200    0.58119    0.23968    1.000
    N189     N        0.00347    0.56648    0.17352    1.000
    Si190    Si       0.02997    0.53174    0.18071    1.000
    Si191    Si       0.00197    0.59697    0.20435    1.000
    N192     N        0.01712    0.62896    0.17909    1.000
    Si193    Si       0.01604    0.63137    0.13525    1.000
    N194     N        0.00648    0.74021    0.14097    1.000
    Si195    Si       0.01381    0.70127    0.15957    1.000
    N196     N        0.01841    0.67440    0.12633    1.000
    N197     N        0.01596    0.70325    0.24608    1.000
    Si198    Si       0.01786    0.58034    0.33627    1.000
    Si199    Si       0.00367    0.59789    0.27576    1.000
    N200     N        0.00846    0.53992    0.32668    1.000
    N201     N        0.03971    0.59602    0.30194    1.000
    Si202    Si       0.99832    0.51709    0.36155    1.000
    N203     N        0.00871    0.51594    0.26098    1.000
    N204     N        0.99531    0.61781    0.34213    1.000
    Si205    Si       0.04263    0.54233    0.24895    1.000
    N206     N        0.04420    0.58110    0.37076    1.000
    Si207    Si       0.04322    0.73815    0.24767    1.000
    N208     N        0.99571    0.64016    0.26680    1.000
    Si209    Si       0.02856    0.64776    0.33206    1.000
    N210     N        0.00359    0.68359    0.33818    1.000
    Si211    Si       0.03090    0.66425    0.25925    1.000
    Si212    Si       0.01980    0.71740    0.36122    1.000
    N213     N        0.02953    0.75015    0.33438    1.000
    N214     N        0.03473    0.57278    0.44142    1.000
    Si215    Si       0.01569    0.57965    0.40437    1.000
    Si216    Si       0.00222    0.56879    0.47306    1.000
    N217     N        0.99451    0.61676    0.40992    1.000
    N218     N        0.99259    0.61165    0.47922    1.000
    N219     N        0.98958    0.54786    0.39100    1.000
    N220     N        0.04922    0.63750    0.45179    1.000
    Si221    Si       0.00455    0.63855    0.44527    1.000
    N222     N        0.01280    0.73852    0.43652    1.000
    Si223    Si       0.99947    0.70826    0.46176    1.000
    N224     N        0.02705    0.69139    0.48902    1.000
    Si225    Si       0.02690    0.57362    0.54481    1.000
    N226     N        0.02802    0.54382    0.57717    1.000
    N227     N        0.01837    0.54957    0.50884    1.000
    Si228    Si       0.03162    0.50862    0.51160    1.000
    Si229    Si       0.99533    0.71450    0.59583    1.000
    Si230    Si       0.01419    0.66261    0.54525    1.000
    Si231    Si       0.01450    0.72799    0.51781    1.000
    N232     N        0.01327    0.70579    0.55621    1.000
    N233     N        0.01048    0.64885    0.58625    1.000
    Si234    Si       0.04153    0.66270    0.61568    1.000
    N235     N        0.04614    0.64250    0.52552    1.000
    N236     N        0.99809    0.75851    0.60007    1.000
    N237     N        0.00290    0.59862    0.62696    1.000
    N238     N        0.03043    0.58809    0.69164    1.000
    Si239    Si       0.04019    0.60401    0.65104    1.000
    N240     N        0.99658    0.52953    0.68067    1.000
    Si241    Si       0.99278    0.56999    0.69716    1.000
    N242     N        0.02320    0.51205    0.74456    1.000
    N243     N        0.02540    0.70056    0.62606    1.000
    N244     N        0.02972    0.65802    0.72074    1.000
    Si245    Si       0.98926    0.66757    0.70950    1.000
    Si246    Si       0.02988    0.54783    0.82599    1.000
    N247     N        0.03459    0.59116    0.83434    1.000
    N248     N        0.00396    0.61969    0.77574    1.000
    N249     N        0.99236    0.53504    0.80885    1.000
    N250     N        0.03596    0.53915    0.87021    1.000
    Si251    Si       0.01731    0.62778    0.81593    1.000
    Si252    Si       0.04053    0.64156    0.76011    1.000
    N253     N        0.03258    0.72933    0.85096    1.000
    Si254    Si       0.99864    0.71145    0.87131    1.000
    N255     N        0.04779    0.65545    0.80036    1.000
    Si256    Si       0.03603    0.58368    0.87734    1.000
    Si257    Si       0.02268    0.54124    0.96993    1.000
    Si258    Si       0.00974    0.61139    0.97191    1.000
    N259     N        0.00014    0.53888    0.93309    1.000
    N260     N        0.04037    0.57937    0.96941    1.000
    Si261    Si       0.01153    0.51244    0.89905    1.000
    N262     N        0.99525    0.59659    0.89033    1.000
    Si263    Si       0.00695    0.67610    0.93710    1.000
    N264     N        0.02862    0.64145    0.94856    1.000
    Si265    Si       0.00161    0.74701    0.94435    1.000
    N266     N        0.02610    0.71240    0.94899    1.000
    N267     N        0.00054    0.67551    0.89461    1.000
    N268     N        0.99519    0.74649    0.90198    1.000
    Si269    Si       0.02303    0.82299    0.08996    1.000
    N270     N        0.04079    0.78398    0.09748    1.000
    Si271    Si       0.99595    0.85855    0.03005    1.000
    N272     N        0.99264    0.82397    0.05621    1.000
    N273     N        0.01391    0.89199    0.05158    1.000
    Si274    Si       0.04380    0.00485    0.07820    1.000
    Si275    Si       0.03944    0.97178    0.00555    1.000
    N276     N        0.01698    0.91213    0.11640    1.000
    N277     N        0.99791    0.98586    0.00097    1.000
    N278     N        0.03900    0.98592    0.11688    1.000
    Si279    Si       0.99302    0.91605    0.07965    1.000
    N280     N        0.99954    0.83573    0.12272    1.000
    N281     N        0.02744    0.79707    0.17248    1.000
    Si282    Si       0.03789    0.77041    0.13831    1.000
    Si283    Si       0.01409    0.87405    0.14000    1.000
    N284     N        0.02378    0.86272    0.23257    1.000
    N285     N        0.04841    0.86786    0.16601    1.000
    N286     N        0.03716    0.94173    0.23393    1.000
    Si287    Si       0.01185    0.00386    0.14782    1.000
    N288     N        0.00789    0.97407    0.18147    1.000
    N289     N        0.00959    0.81476    0.31681    1.000
    Si290    Si       0.03347    0.78103    0.30555    1.000
    Si291    Si       0.02630    0.84886    0.33750    1.000
    N292     N        0.01774    0.76812    0.26720    1.000
    N293     N        0.03349    0.98215    0.30691    1.000
    Si294    Si       0.00811    0.95745    0.33505    1.000
    N295     N        0.03264    0.90520    0.29138    1.000
    N296     N        0.04577    0.94840    0.35799    1.000
    Si297    Si       0.02701    0.90291    0.24725    1.000
    N298     N        0.99305    0.99070    0.36133    1.000
    Si299    Si       0.02477    0.80804    0.40973    1.000
    N300     N        0.01842    0.82926    0.44730    1.000
    N301     N        0.03966    0.83739    0.37819    1.000
    Si302    Si       0.99277    0.99830    0.40504    1.000
    N303     N        0.02258    0.96760    0.42050    1.000
    N304     N        0.99319    0.91680    0.39119    1.000
    N305     N        0.00247    0.91509    0.46442    1.000
    Si306    Si       0.03273    0.93280    0.39420    1.000
    Si307    Si       0.04477    0.91339    0.46546    1.000
    N308     N        0.01088    0.82554    0.51002    1.000
    Si309    Si       0.00556    0.78679    0.56716    1.000
    Si310    Si       0.01355    0.85257    0.54337    1.000
    N311     N        0.99350    0.76420    0.53375    1.000
    Si312    Si       0.03787    0.79134    0.51158    1.000
    N313     N        0.99107    0.82720    0.57180    1.000
    Si314    Si       0.00047    0.91560    0.56786    1.000
    N315     N        0.01953    0.89664    0.60175    1.000
    N316     N        0.01388    0.95459    0.55025    1.000
    Si317    Si       0.04276    0.98592    0.56178    1.000
    N318     N        0.99579    0.89117    0.53337    1.000
    Si319    Si       0.03093    0.77799    0.69964    1.000
    N320     N        0.02502    0.82129    0.69683    1.000
    N321     N        0.99834    0.76612    0.72516    1.000
    N322     N        0.03120    0.76554    0.65821    1.000
    Si323    Si       0.99186    0.76659    0.64287    1.000
    N324     N        0.99459    0.93273    0.70310    1.000
    Si325    Si       0.03742    0.92912    0.71150    1.000
    Si326    Si       0.00095    0.96283    0.66925    1.000
    N327     N        0.02316    0.99502    0.64431    1.000
    Si328    Si       0.00500    0.01012    0.72207    1.000
    Si329    Si       0.01658    0.83561    0.81145    1.000
    Si330    Si       0.00531    0.76963    0.76897    1.000
    N331     N        0.02285    0.87484    0.79212    1.000
    N332     N        0.99799    0.81362    0.77663    1.000
    N333     N        0.04351    0.75849    0.78434    1.000
    Si334    Si       0.00077    0.89933    0.76632    1.000
    N335     N        0.01742    0.96377    0.82196    1.000
    Si336    Si       0.00438    0.95587    0.78107    1.000
    N337     N        0.02982    0.93099    0.75647    1.000
    N338     N        0.99266    0.99233    0.76166    1.000
    N339     N        0.03165    0.80235    0.87588    1.000
    Si340    Si       0.99977    0.81980    0.96688    1.000
    N341     N        0.01922    0.78277    0.96445    1.000
    N342     N        0.99790    0.83152    0.92452    1.000
    Si343    Si       0.99366    0.82035    0.88189    1.000
    N344     N        0.01884    0.84875    0.99435    1.000
    Si345    Si       0.03348    0.75938    0.88181    1.000
    N346     N        0.02756    0.96760    0.91601    1.000
    N347     N        0.04296    0.93281    0.98613    1.000
    N348     N        0.01021    0.90260    0.92669    1.000
    Si349    Si       0.99109    0.94245    0.91749    1.000
    N350     N        0.07324    0.03615    0.08434    1.000
    N351     N        0.08406    0.10824    0.09357    1.000
    Si352    Si       0.06561    0.07082    0.10993    1.000
    N353     N        0.09107    0.09254    0.03016    1.000
    Si354    Si       0.05195    0.11038    0.03032    1.000
    N355     N        0.07080    0.24656    0.07997    1.000
    N356     N        0.07889    0.18274    0.10252    1.000
    Si357    Si       0.06022    0.14628    0.09001    1.000
    N358     N        0.05535    0.14982    0.04668    1.000
    Si359    Si       0.05222    0.21852    0.10678    1.000
    Si360    Si       0.07566    0.22831    0.99844    1.000
    N361     N        0.10462    0.21147    0.02475    1.000
    Si362    Si       0.10815    0.23581    0.05969    1.000
    N363     N        0.06068    0.06354    0.21846    1.000
    N364     N        0.08318    0.06574    0.14954    1.000
    N365     N        0.08328    0.13085    0.22490    1.000
    Si366    Si       0.04872    0.07298    0.17637    1.000
    Si367    Si       0.08311    0.09242    0.24446    1.000
    N368     N        0.08920    0.23702    0.19955    1.000
    N369     N        0.05114    0.23293    0.14724    1.000
    Si370    Si       0.04954    0.22103    0.19116    1.000
    N371     N        0.06436    0.09781    0.28454    1.000
    Si372    Si       0.05814    0.05402    0.34851    1.000
    N373     N        0.09891    0.05642    0.33004    1.000
    Si374    Si       0.10316    0.09058    0.30392    1.000
    N375     N        0.06640    0.01686    0.36903    1.000
    N376     N        0.06917    0.17101    0.32458    1.000
    Si377    Si       0.07309    0.19238    0.28569    1.000
    N378     N        0.06463    0.23283    0.29779    1.000
    Si379    Si       0.10059    0.15572    0.35086    1.000
    N380     N        0.06400    0.24312    0.36283    1.000
    N381     N        0.10567    0.18784    0.25685    1.000
    N382     N        0.09725    0.05765    0.41603    1.000
    Si383    Si       0.07458    0.09315    0.40841    1.000
    Si384    Si       0.09794    0.01873    0.39994    1.000
    Si385    Si       0.04949    0.12090    0.47683    1.000
    N386     N        0.04641    0.08708    0.37392    1.000
    N387     N        0.04713    0.09164    0.44318    1.000
    N388     N        0.04862    0.16028    0.45484    1.000
    Si389    Si       0.09926    0.22878    0.49482    1.000
    N390     N        0.08097    0.20184    0.41042    1.000
    N391     N        0.09017    0.13342    0.39362    1.000
    Si392    Si       0.05853    0.16272    0.41388    1.000
    Si393    Si       0.05264    0.23749    0.40611    1.000
    Si394    Si       0.07252    0.09222    0.53877    1.000
    N395     N        0.06450    0.05403    0.61240    1.000
    N396     N        0.08265    0.11656    0.50457    1.000
    N397     N        0.05685    0.10986    0.57550    1.000
    Si398    Si       0.06664    0.03407    0.49752    1.000
    Si399    Si       0.10626    0.05511    0.59529    1.000
    N400     N        0.10181    0.06304    0.55487    1.000
    N401     N        0.09112    0.16430    0.56286    1.000
    N402     N        0.09584    0.22793    0.59703    1.000
    Si403    Si       0.05220    0.15228    0.57923    1.000
    N404     N        0.06581    0.17069    0.61797    1.000
    Si405    Si       0.10516    0.18351    0.60228    1.000
    Si406    Si       0.06349    0.24424    0.62115    1.000
    N407     N        0.05765    0.21622    0.49547    1.000
    Si408    Si       0.08331    0.10963    0.67818    1.000
    N409     N        0.07037    0.08691    0.71287    1.000
    N410     N        0.05268    0.11373    0.64745    1.000
    Si411    Si       0.10030    0.08344    0.74367    1.000
    N412     N        0.07990    0.15279    0.69127    1.000
    Si413    Si       0.10378    0.16096    0.72560    1.000
    Si414    Si       0.05113    0.15710    0.65554    1.000
    N415     N        0.08379    0.05329    0.76967    1.000
    Si416    Si       0.08262    0.05475    0.81309    1.000
    N417     N        0.06665    0.09526    0.82570    1.000
    Si418    Si       0.08212    0.10953    0.86302    1.000
    N419     N        0.05079    0.02945    0.82870    1.000
    N420     N        0.10395    0.12840    0.75618    1.000
    Si421    Si       0.07457    0.01235    0.75503    1.000
    N422     N        0.09493    0.19038    0.75624    1.000
    Si423    Si       0.08644    0.15894    0.78422    1.000
    N424     N        0.08962    0.17421    0.82774    1.000
    Si425    Si       0.08301    0.22661    0.77670    1.000
    Si426    Si       0.05967    0.18106    0.85818    1.000
    N427     N        0.04823    0.25281    0.83641    1.000
    N428     N        0.07897    0.08235    0.89694    1.000
    N429     N        0.09190    0.05837    0.96366    1.000
    Si430    Si       0.07055    0.02130    0.94795    1.000
    N431     N        0.07085    0.21082    0.88765    1.000
    Si432    Si       0.07406    0.20141    0.93104    1.000
    Si433    Si       0.06985    0.25106    0.87323    1.000
    N434     N        0.05505    0.14217    0.87256    1.000
    N435     N        0.08392    0.23708    0.95825    1.000
    Si436    Si       0.10678    0.15041    0.95380    1.000
    N437     N        0.06497    0.16047    0.95127    1.000
    N438     N        0.06750    0.30816    0.06346    1.000
    Si439    Si       0.09655    0.29675    0.03468    1.000
    N440     N        0.08552    0.37680    0.06708    1.000
    N441     N        0.06891    0.26557    0.01914    1.000
    Si442    Si       0.05449    0.34875    0.05522    1.000
    N443     N        0.10382    0.32959    0.00856    1.000
    Si444    Si       0.06270    0.46103    0.03318    1.000
    Si445    Si       0.09073    0.44759    0.09648    1.000
    N446     N        0.07717    0.42747    0.00735    1.000
    N447     N        0.09245    0.49340    0.03166    1.000
    N448     N        0.09579    0.49131    0.10003    1.000
    Si449    Si       0.10206    0.40356    0.03501    1.000
    N450     N        0.05183    0.44894    0.07299    1.000
    N451     N        0.08657    0.41218    0.12315    1.000
    N452     N        0.07039    0.30008    0.17862    1.000
    Si453    Si       0.08139    0.34057    0.16762    1.000
    Si454    Si       0.08331    0.26173    0.16238    1.000
    N455     N        0.10039    0.35742    0.20414    1.000
    Si456    Si       0.04647    0.40600    0.13970    1.000
    N457     N        0.05605    0.41396    0.22735    1.000
    Si458    Si       0.08587    0.38389    0.23650    1.000
    N459     N        0.09808    0.47543    0.20889    1.000
    Si460    Si       0.08148    0.44924    0.23802    1.000
    N461     N        0.07014    0.36808    0.33875    1.000
    N462     N        0.06920    0.30554    0.30895    1.000
    Si463    Si       0.07899    0.31735    0.26743    1.000
    Si464    Si       0.09036    0.26842    0.30108    1.000
    N465     N        0.08887    0.35901    0.27069    1.000
    Si466    Si       0.10670    0.36777    0.30945    1.000
    N467     N        0.07954    0.48170    0.33882    1.000
    N468     N        0.05818    0.47121    0.26838    1.000
    Si469    Si       0.08212    0.49484    0.29528    1.000
    Si470    Si       0.05826    0.46841    0.37491    1.000
    N471     N        0.06886    0.32575    0.46460    1.000
    Si472    Si       0.07962    0.36644    0.45054    1.000
    N473     N        0.07072    0.27208    0.42371    1.000
    N474     N        0.06068    0.37010    0.41101    1.000
    Si475    Si       0.10296    0.30452    0.48340    1.000
    N476     N        0.08880    0.48465    0.39934    1.000
    N477     N        0.05364    0.39450    0.47279    1.000
    N478     N        0.07889    0.45740    0.46681    1.000
    Si479    Si       0.08145    0.39086    0.37436    1.000
    N480     N        0.05884    0.42501    0.38275    1.000
    Si481    Si       0.10152    0.48239    0.44104    1.000
    Si482    Si       0.07447    0.30795    0.57018    1.000
    N483     N        0.07089    0.34252    0.59842    1.000
    N484     N        0.05684    0.28177    0.60047    1.000
    N485     N        0.08591    0.27024    0.50300    1.000
    N486     N        0.07135    0.44878    0.53545    1.000
    N487     N        0.08700    0.40363    0.59770    1.000
    N488     N        0.07324    0.47409    0.60585    1.000
    Si489    Si       0.08747    0.44345    0.57796    1.000
    Si490    Si       0.09463    0.47130    0.50490    1.000
    Si491    Si       0.10158    0.50476    0.61904    1.000
    Si492    Si       0.07609    0.26568    0.70593    1.000
    Si493    Si       0.06684    0.31178    0.63239    1.000
    N494     N        0.05575    0.30499    0.71076    1.000
    N495     N        0.07861    0.26345    0.65928    1.000
    N496     N        0.10528    0.32078    0.64975    1.000
    N497     N        0.10217    0.41384    0.74607    1.000
    Si498    Si       0.05323    0.44389    0.68709    1.000
    N499     N        0.09403    0.43125    0.67883    1.000
    N500     N        0.05391    0.48812    0.68708    1.000
    N501     N        0.08002    0.30749    0.81789    1.000
    N502     N        0.09695    0.33398    0.76320    1.000
    Si503    Si       0.06574    0.30833    0.75502    1.000
    N504     N        0.07752    0.26388    0.75438    1.000
    N505     N        0.10561    0.37182    0.83821    1.000
    Si506    Si       0.07056    0.39506    0.84225    1.000
    N507     N        0.07309    0.41593    0.80240    1.000
    N508     N        0.09470    0.49070    0.76638    1.000
    N509     N        0.07982    0.48636    0.83999    1.000
    Si510    Si       0.05697    0.41555    0.76160    1.000
    Si511    Si       0.06875    0.50940    0.87396    1.000
    Si512    Si       0.07759    0.37610    0.91241    1.000
    Si513    Si       0.07431    0.27652    0.94367    1.000
    Si514    Si       0.07174    0.34452    0.98329    1.000
    N515     N        0.05512    0.31138    0.96200    1.000
    N516     N        0.05148    0.27169    0.90636    1.000
    N517     N        0.08001    0.37879    0.95651    1.000
    Si518    Si       0.07053    0.41961    0.96663    1.000
    N519     N        0.09358    0.45260    0.94775    1.000
    N520     N        0.06698    0.40815    0.88551    1.000
    Si521    Si       0.08006    0.49195    0.93660    1.000
    N522     N        0.07726    0.55133    0.10599    1.000
    Si523    Si       0.08807    0.52202    0.06699    1.000
    N524     N        0.07131    0.62621    0.01288    1.000
    N525     N        0.09010    0.61975    0.07701    1.000
    Si526    Si       0.08601    0.59410    0.11147    1.000
    Si527    Si       0.05147    0.62464    0.05173    1.000
    N528     N        0.09716    0.56155    0.00194    1.000
    N529     N        0.06249    0.71543    0.08094    1.000
    Si530    Si       0.10357    0.71087    0.06921    1.000
    Si531    Si       0.05808    0.75653    0.06718    1.000
    N532     N        0.10181    0.75762    0.06129    1.000
    N533     N        0.06206    0.53212    0.21180    1.000
    Si534    Si       0.08392    0.51752    0.13343    1.000
    Si535    Si       0.10317    0.51729    0.20420    1.000
    N536     N        0.04671    0.50641    0.14897    1.000
    Si537    Si       0.05092    0.65647    0.18879    1.000
    N538     N        0.07111    0.75535    0.21919    1.000
    N539     N        0.07708    0.75106    0.14960    1.000
    N540     N        0.06101    0.64987    0.23190    1.000
    N541     N        0.08295    0.64935    0.16423    1.000
    Si542    Si       0.08264    0.72723    0.18567    1.000
    N543     N        0.04784    0.70018    0.18617    1.000
    N544     N        0.07110    0.53653    0.28211    1.000
    Si545    Si       0.08027    0.57749    0.29866    1.000
    N546     N        0.09978    0.58391    0.33780    1.000
    N547     N        0.10237    0.60085    0.26923    1.000
    Si548    Si       0.08516    0.68959    0.29538    1.000
    N549     N        0.07579    0.72744    0.27710    1.000
    N550     N        0.06335    0.64451    0.36076    1.000
    N551     N        0.09800    0.69652    0.33755    1.000
    N552     N        0.05089    0.66481    0.29712    1.000
    Si553    Si       0.09992    0.63715    0.24403    1.000
    Si554    Si       0.07932    0.60482    0.37091    1.000
    Si555    Si       0.06924    0.60002    0.44410    1.000
    N556     N        0.09687    0.60875    0.40983    1.000
    N557     N        0.09150    0.58355    0.47632    1.000
    Si558    Si       0.09791    0.54210    0.49003    1.000
    N559     N        0.08714    0.72758    0.44359    1.000
    N560     N        0.05302    0.71104    0.38730    1.000
    Si561    Si       0.05240    0.74090    0.42074    1.000
    Si562    Si       0.07994    0.72634    0.48573    1.000
    Si563    Si       0.08168    0.68012    0.37457    1.000
    Si564    Si       0.05628    0.66115    0.48813    1.000
    Si565    Si       0.06750    0.56071    0.58832    1.000
    N566     N        0.06810    0.58949    0.55507    1.000
    N567     N        0.07632    0.51079    0.50972    1.000
    N568     N        0.10519    0.53542    0.58921    1.000
    Si569    Si       0.08076    0.63046    0.55253    1.000
    N570     N        0.07643    0.65939    0.58606    1.000
    N571     N        0.08285    0.72857    0.61579    1.000
    Si572    Si       0.10414    0.68981    0.59743    1.000
    N573     N        0.04661    0.74971    0.49939    1.000
    N574     N        0.09042    0.68578    0.49643    1.000
    N575     N        0.10131    0.59369    0.68609    1.000
    N576     N        0.06743    0.58444    0.62423    1.000
    Si577    Si       0.08819    0.51569    0.69273    1.000
    N578     N        0.07680    0.54282    0.72414    1.000
    Si579    Si       0.06973    0.58321    0.71351    1.000
    N580     N        0.09792    0.53107    0.65406    1.000
    Si581    Si       0.10258    0.57362    0.64850    1.000
    N582     N        0.04904    0.64576    0.65531    1.000
    Si583    Si       0.08669    0.73273    0.70998    1.000
    N584     N        0.10516    0.67334    0.70391    1.000
    Si585    Si       0.06235    0.66629    0.69290    1.000
    Si586    Si       0.05120    0.72844    0.64620    1.000
    N587     N        0.05605    0.71038    0.68601    1.000
    N588     N        0.06331    0.54007    0.79956    1.000
    Si589    Si       0.06449    0.52311    0.75999    1.000
    Si590    Si       0.10071    0.54972    0.81808    1.000
    Si591    Si       0.09825    0.61132    0.86846    1.000
    N592     N        0.09995    0.56809    0.85963    1.000
    N593     N        0.06874    0.61052    0.74745    1.000
    N594     N        0.09921    0.64987    0.84761    1.000
    N595     N        0.09163    0.71298    0.80966    1.000
    Si596    Si       0.08726    0.66925    0.81059    1.000
    Si597    Si       0.05332    0.73135    0.81351    1.000
    N598     N        0.09961    0.51643    0.90242    1.000
    Si599    Si       0.07850    0.59463    0.98297    1.000
    N600     N        0.06268    0.61276    0.89433    1.000
    N601     N        0.09808    0.61293    0.95072    1.000
    N602     N        0.05684    0.51190    0.97049    1.000
    Si603    Si       0.09160    0.51785    0.99631    1.000
    Si604    Si       0.06828    0.63697    0.93145    1.000
    N605     N        0.08185    0.74461    0.97087    1.000
    N606     N        0.06500    0.74705    0.90835    1.000
    N607     N        0.08733    0.67611    0.93793    1.000
    Si608    Si       0.06860    0.71548    0.93980    1.000
    Si609    Si       0.09381    0.84504    0.10795    1.000
    N610     N        0.05591    0.85452    0.08835    1.000
    N611     N        0.07702    0.88060    0.02950    1.000
    Si612    Si       0.05200    0.94333    0.11963    1.000
    Si613    Si       0.05449    0.89126    0.06617    1.000
    N614     N        0.07289    0.93113    0.08210    1.000
    Si615    Si       0.09096    0.95852    0.05389    1.000
    N616     N        0.05461    0.97936    0.04458    1.000
    N617     N        0.10576    0.94669    0.01259    1.000
    Si618    Si       0.08034    0.91273    0.99833    1.000
    N619     N        0.08764    0.81598    0.14082    1.000
    N620     N        0.08888    0.82518    0.20856    1.000
    Si621    Si       0.06033    0.82702    0.17445    1.000
    Si622    Si       0.10343    0.78519    0.21824    1.000
    Si623    Si       0.04757    0.95764    0.19289    1.000
    Si624    Si       0.08491    0.89310    0.16483    1.000
    N625     N        0.07153    0.99318    0.20456    1.000
    N626     N        0.06608    0.93502    0.16089    1.000
    N627     N        0.07274    0.79532    0.29845    1.000
    N628     N        0.06877    0.85862    0.32769    1.000
    Si629    Si       0.09171    0.83450    0.29995    1.000
    N630     N        0.08810    0.86502    0.26782    1.000
    Si631    Si       0.09999    0.76202    0.28854    1.000
    Si632    Si       0.07302    0.89359    0.29930    1.000
    N633     N        0.08970    0.96923    0.26110    1.000
    Si634    Si       0.06291    0.98342    0.34105    1.000
    N635     N        0.10307    0.98498    0.32445    1.000
    N636     N        0.10608    0.91778    0.31412    1.000
    Si637    Si       0.04568    0.97312    0.26484    1.000
    Si638    Si       0.08066    0.84891    0.36844    1.000
    N639     N        0.10581    0.81231    0.37297    1.000
    N640     N        0.05868    0.78242    0.41423    1.000
    N641     N        0.08422    0.84615    0.43042    1.000
    Si642    Si       0.09661    0.80585    0.41498    1.000
    Si643    Si       0.05690    0.84086    0.46465    1.000
    N644     N        0.07416    0.80978    0.49130    1.000
    N645     N        0.05942    0.87926    0.48448    1.000
    Si646    Si       0.05217    0.98418    0.44749    1.000
    Si647    Si       0.09169    0.88803    0.42088    1.000
    N648     N        0.05881    0.95228    0.47833    1.000
    N649     N        0.10031    0.88738    0.37987    1.000
    N650     N        0.05388    0.91017    0.42325    1.000
    N651     N        0.08945    0.98570    0.42673    1.000
    Si652    Si       0.07593    0.82109    0.56550    1.000
    N653     N        0.06764    0.83702    0.60773    1.000
    N654     N        0.05755    0.86202    0.55162    1.000
    Si655    Si       0.05824    0.87837    0.59244    1.000
    N656     N        0.04798    0.79209    0.55399    1.000
    Si657    Si       0.08214    0.88311    0.52211    1.000
    N658     N        0.06916    0.99807    0.52917    1.000
    Si659    Si       0.08486    0.96280    0.50892    1.000
    N660     N        0.08161    0.92766    0.53639    1.000
    N661     N        0.06505    0.96732    0.59558    1.000
    N662     N        0.09476    0.90138    0.59479    1.000
    Si663    Si       0.09405    0.93878    0.57640    1.000
    Si664    Si       0.05873    0.84571    0.71086    1.000
    N665     N        0.09015    0.83565    0.68228    1.000
    Si666    Si       0.09206    0.82375    0.63853    1.000
    N667     N        0.06754    0.76886    0.72229    1.000
    Si668    Si       0.08136    0.98308    0.70286    1.000
    Si669    Si       0.09896    0.90727    0.71043    1.000
    N670     N        0.09089    0.98769    0.66028    1.000
    N671     N        0.08368    0.94487    0.72572    1.000
    Si672    Si       0.05785    0.96879    0.63842    1.000
    N673     N        0.06055    0.88773    0.71204    1.000
    N674     N        0.04645    0.00008    0.72113    1.000
    N675     N        0.04353    0.94252    0.67063    1.000
    Si676    Si       0.06950    0.85926    0.78616    1.000
    Si677    Si       0.06972    0.82508    0.86222    1.000
    Si678    Si       0.06981    0.78687    0.76176    1.000
    N679     N        0.05857    0.83401    0.82162    1.000
    N680     N        0.06304    0.82897    0.75297    1.000
    N681     N        0.08367    0.90142    0.78208    1.000
    N682     N        0.06920    0.98000    0.78478    1.000
    Si683    Si       0.07133    0.94026    0.76795    1.000
    N684     N        0.07756    0.96937    0.86001    1.000
    Si685    Si       0.05606    0.98535    0.82643    1.000
    N686     N        0.09014    0.85739    0.88165    1.000
    Si687    Si       0.09797    0.77479    0.91066    1.000
    Si688    Si       0.05416    0.77180    0.99160    1.000
    N689     N        0.07241    0.88235    0.96555    1.000
    N690     N        0.10579    0.81101    0.93626    1.000
    N691     N        0.07388    0.81081    0.99831    1.000
    Si692    Si       0.06092    0.85181    0.99594    1.000
    N693     N        0.07910    0.92371    0.91430    1.000
    Si694    Si       0.10665    0.89678    0.89245    1.000
    Si695    Si       0.04772    0.91160    0.94395    1.000
    N696     N        0.07009    0.99276    0.98058    1.000
    N697     N        0.09032    0.99764    0.91809    1.000
    Si698    Si       0.06856    0.96332    0.90302    1.000
    N699     N        0.15224    0.09669    0.08171    1.000
    N700     N        0.13000    0.03677    0.11112    1.000
    Si701    Si       0.11553    0.11143    0.06288    1.000
    Si702    Si       0.11520    0.02314    0.07127    1.000
    N703     N        0.14993    0.07875    0.00347    1.000
    Si704    Si       0.10900    0.06270    0.00290    1.000
    N705     N        0.15910    0.02960    0.05813    1.000
    N706     N        0.10944    0.02350    0.02336    1.000
    Si707    Si       0.13249    0.17825    0.02285    1.000
    Si708    Si       0.12319    0.17805    0.09691    1.000
    N709     N        0.12656    0.15499    0.06090    1.000
    N710     N        0.13644    0.21880    0.09000    1.000
    Si711    Si       0.14942    0.24545    0.12062    1.000
    Si712    Si       0.15672    0.11509    0.12348    1.000
    Si713    Si       0.12295    0.05301    0.15057    1.000
    N714     N        0.15070    0.08612    0.15308    1.000
    N715     N        0.13719    0.02729    0.18302    1.000
    Si716    Si       0.16368    0.03730    0.21865    1.000
    N717     N        0.15770    0.12994    0.23653    1.000
    Si718    Si       0.11892    0.21631    0.22310    1.000
    N719     N        0.13226    0.18054    0.19871    1.000
    N720     N        0.13782    0.15406    0.12883    1.000
    Si721    Si       0.15474    0.17727    0.16142    1.000
    Si722    Si       0.12083    0.15354    0.23229    1.000
    N723     N        0.15420    0.23807    0.23625    1.000
    Si724    Si       0.12248    0.02162    0.33843    1.000
    N725     N        0.12159    0.08440    0.26407    1.000
    N726     N        0.11634    0.12402    0.32821    1.000
    N727     N        0.15926    0.02470    0.31380    1.000
    Si728    Si       0.16224    0.09616    0.26372    1.000
    Si729    Si       0.15854    0.12137    0.33770    1.000
    N730     N        0.14063    0.01051    0.24501    1.000
    N731     N        0.12402    0.19396    0.34920    1.000
    Si732    Si       0.10798    0.23285    0.35971    1.000
    N733     N        0.16312    0.06335    0.43149    1.000
    Si734    Si       0.12402    0.06815    0.44858    1.000
    N735     N        0.12203    0.11289    0.44817    1.000
    N736     N        0.15523    0.11313    0.38098    1.000
    Si737    Si       0.12440    0.12222    0.49069    1.000
    N738     N        0.13541    0.01065    0.37937    1.000
    N739     N        0.10576    0.04679    0.48349    1.000
    N740     N        0.13149    0.22156    0.46556    1.000
    Si741    Si       0.12945    0.13396    0.41221    1.000
    Si742    Si       0.12491    0.20929    0.42378    1.000
    N743     N        0.13214    0.24700    0.39682    1.000
    N744     N        0.14932    0.17236    0.41757    1.000
    Si745    Si       0.12704    0.05328    0.52192    1.000
    N746     N        0.13464    0.08537    0.60866    1.000
    N747     N        0.14664    0.01815    0.53745    1.000
    N748     N        0.12729    0.01770    0.60531    1.000
    N749     N        0.14980    0.08865    0.50773    1.000
    Si750    Si       0.12741    0.17995    0.54238    1.000
    N751     N        0.14687    0.18346    0.58056    1.000
    N752     N        0.14231    0.15787    0.50810    1.000
    Si753    Si       0.12368    0.24664    0.56742    1.000
    N754     N        0.11832    0.22180    0.53213    1.000
    N755     N        0.16705    0.24880    0.57093    1.000
    N756     N        0.13886    0.03650    0.66797    1.000
    Si757    Si       0.14158    0.03070    0.71060    1.000
    N758     N        0.12577    0.10576    0.67174    1.000
    Si759    Si       0.14910    0.07551    0.65153    1.000
    N760     N        0.13990    0.06831    0.73271    1.000
    Si761    Si       0.14215    0.14730    0.67138    1.000
    N762     N        0.12962    0.17068    0.63718    1.000
    N763     N        0.14211    0.16789    0.70912    1.000
    N764     N        0.15037    0.25765    0.63900    1.000
    N765     N        0.12333    0.11840    0.85322    1.000
    N766     N        0.12241    0.05030    0.83066    1.000
    Si767    Si       0.14676    0.08648    0.83742    1.000
    Si768    Si       0.15074    0.01924    0.81534    1.000
    N769     N        0.16079    0.09797    0.79654    1.000
    N770     N        0.14643    0.16838    0.80595    1.000
    Si771    Si       0.12810    0.16114    0.84494    1.000
    Si772    Si       0.14971    0.20995    0.79557    1.000
    N773     N        0.11696    0.23853    0.80126    1.000
    N774     N        0.15601    0.17923    0.87227    1.000
    N775     N        0.12458    0.11079    0.94177    1.000
    N776     N        0.14196    0.04788    0.91951    1.000
    Si777    Si       0.14998    0.11472    0.97841    1.000
    Si778    Si       0.10884    0.07384    0.92672    1.000
    Si779    Si       0.15544    0.19695    0.91289    1.000
    N780     N        0.12533    0.14851    0.99182    1.000
    N781     N        0.15468    0.24024    0.91738    1.000
    N782     N        0.11870    0.18394    0.93089    1.000
    N783     N        0.12718    0.27439    0.05285    1.000
    Si784    Si       0.14327    0.34566    0.01058    1.000
    Si785    Si       0.11072    0.37924    0.10496    1.000
    N786     N        0.15020    0.39400    0.10285    1.000
    N787     N        0.13926    0.38722    0.01999    1.000
    N788     N        0.14656    0.45327    0.00293    1.000
    Si789    Si       0.13144    0.47301    0.03996    1.000
    N790     N        0.11413    0.43717    0.06136    1.000
    N791     N        0.16429    0.48926    0.06316    1.000
    N792     N        0.15392    0.32301    0.24002    1.000
    N793     N        0.15940    0.32588    0.17067    1.000
    N794     N        0.11859    0.26724    0.14108    1.000
    Si795    Si       0.13734    0.30721    0.13612    1.000
    Si796    Si       0.14134    0.34518    0.20390    1.000
    N797     N        0.10814    0.34156    0.12987    1.000
    Si798    Si       0.15181    0.41978    0.22522    1.000
    N799     N        0.11459    0.41941    0.24609    1.000
    N800     N        0.16876    0.37916    0.21404    1.000
    N801     N        0.13447    0.33646    0.31777    1.000
    Si802    Si       0.13419    0.30451    0.34855    1.000
    N803     N        0.12063    0.26495    0.33099    1.000
    Si804    Si       0.16004    0.32458    0.28630    1.000
    Si805    Si       0.14868    0.27854    0.24804    1.000
    N806     N        0.10924    0.28357    0.26507    1.000
    Si807    Si       0.14495    0.41108    0.35034    1.000
    N808     N        0.12470    0.48081    0.28251    1.000
    N809     N        0.12429    0.40989    0.31402    1.000
    Si810    Si       0.13518    0.43916    0.28089    1.000
    Si811    Si       0.11426    0.48481    0.36280    1.000
    N812     N        0.14170    0.45201    0.36666    1.000
    N813     N        0.12305    0.36561    0.44627    1.000
    N814     N        0.12213    0.31486    0.38935    1.000
    Si815    Si       0.13682    0.35290    0.40691    1.000
    Si816    Si       0.14525    0.36374    0.48299    1.000
    N817     N        0.13225    0.29373    0.45260    1.000
    Si818    Si       0.11201    0.28219    0.41580    1.000
    Si819    Si       0.16186    0.47333    0.47317    1.000
    N820     N        0.12328    0.38348    0.37842    1.000
    N821     N        0.14107    0.46342    0.43739    1.000
    Si822    Si       0.14202    0.32169    0.54844    1.000
    N823     N        0.13044    0.35815    0.56622    1.000
    N824     N        0.13417    0.32588    0.50571    1.000
    N825     N        0.11473    0.29124    0.56386    1.000
    Si826    Si       0.10890    0.36650    0.60448    1.000
    N827     N        0.12955    0.44294    0.56685    1.000
    Si828    Si       0.14408    0.39951    0.55408    1.000
    N829     N        0.13657    0.46932    0.50608    1.000
    Si830    Si       0.15789    0.46908    0.54769    1.000
    N831     N        0.14454    0.39686    0.51023    1.000
    N832     N        0.16147    0.31710    0.74373    1.000
    Si833    Si       0.13807    0.34451    0.66680    1.000
    N834     N        0.12697    0.36374    0.70561    1.000
    Si835    Si       0.11899    0.27872    0.66114    1.000
    N836     N        0.12223    0.27413    0.70397    1.000
    N837     N        0.14366    0.37261    0.63308    1.000
    Si838    Si       0.16345    0.28944    0.71064    1.000
    Si839    Si       0.13375    0.35084    0.74793    1.000
    N840     N        0.15462    0.42682    0.68750    1.000
    N841     N        0.13691    0.47922    0.63516    1.000
    Si842    Si       0.13240    0.49045    0.74387    1.000
    N843     N        0.12033    0.48723    0.70195    1.000
    Si844    Si       0.12899    0.45536    0.66998    1.000
    Si845    Si       0.11806    0.40847    0.70690    1.000
    N846     N        0.13990    0.31126    0.81656    1.000
    N847     N        0.13931    0.37824    0.78485    1.000
    Si848    Si       0.11256    0.27630    0.82284    1.000
    N849     N        0.11028    0.26751    0.86744    1.000
    Si850    Si       0.13698    0.37628    0.86906    1.000
    Si851    Si       0.10964    0.34117    0.80608    1.000
    N852     N        0.13159    0.44763    0.80828    1.000
    Si853    Si       0.11540    0.41395    0.78895    1.000
    N854     N        0.14904    0.41835    0.87267    1.000
    Si855    Si       0.16255    0.44032    0.83615    1.000
    Si856    Si       0.10665    0.48253    0.80889    1.000
    N857     N        0.11161    0.29685    0.93479    1.000
    Si858    Si       0.13905    0.33107    0.93054    1.000
    N859     N        0.11900    0.36071    0.90584    1.000
    Si860    Si       0.13306    0.27511    0.90343    1.000
    N861     N        0.15710    0.34625    0.96757    1.000
    N862     N        0.12304    0.50507    0.96668    1.000
    Si863    Si       0.13411    0.46285    0.96241    1.000
    N864     N        0.16473    0.45074    0.93606    1.000
    N865     N        0.12662    0.54411    0.05888    1.000
    Si866    Si       0.13278    0.56858    0.02381    1.000
    N867     N        0.14037    0.60991    0.02209    1.000
    Si868    Si       0.16601    0.53029    0.07478    1.000
    N869     N        0.16290    0.54956    0.99731    1.000
    N870     N        0.15701    0.63863    0.08311    1.000
    Si871    Si       0.12301    0.63674    0.05284    1.000
    N872     N        0.13911    0.71797    0.09337    1.000
    Si873    Si       0.14629    0.69789    0.01889    1.000
    N874     N        0.15938    0.73650    0.03353    1.000
    N875     N        0.11556    0.67858    0.04430    1.000
    Si876    Si       0.14345    0.75812    0.07172    1.000
    Si877    Si       0.16196    0.69662    0.12246    1.000
    Si878    Si       0.15143    0.62519    0.12576    1.000
    N879     N        0.12493    0.59160    0.12842    1.000
    Si880    Si       0.14178    0.55598    0.14730    1.000
    N881     N        0.14182    0.52504    0.22842    1.000
    N882     N        0.11422    0.52768    0.16183    1.000
    Si883    Si       0.16234    0.60695    0.20866    1.000
    N884     N        0.16298    0.57081    0.18307    1.000
    Si885    Si       0.12045    0.66267    0.18031    1.000
    Si886    Si       0.15125    0.73347    0.19262    1.000
    N887     N        0.13024    0.63434    0.21057    1.000
    N888     N        0.14672    0.66259    0.14624    1.000
    N889     N        0.11884    0.70311    0.19522    1.000
    N890     N        0.16927    0.72503    0.15370    1.000
    N891     N        0.13948    0.55073    0.29686    1.000
    Si892    Si       0.13529    0.55824    0.34052    1.000
    Si893    Si       0.14390    0.58937    0.27817    1.000
    N894     N        0.13988    0.51925    0.35821    1.000
    Si895    Si       0.14575    0.51587    0.27175    1.000
    N896     N        0.16533    0.62597    0.29893    1.000
    Si897    Si       0.15754    0.66732    0.28440    1.000
    N898     N        0.11638    0.66804    0.27058    1.000
    Si899    Si       0.13399    0.72083    0.33994    1.000
    N900     N        0.16121    0.69898    0.31469    1.000
    Si901    Si       0.15428    0.54302    0.45331    1.000
    N902     N        0.11270    0.52378    0.45325    1.000
    Si903    Si       0.13138    0.59872    0.48842    1.000
    N904     N        0.14010    0.72816    0.38273    1.000
    Si905    Si       0.12923    0.63792    0.42374    1.000
    N906     N        0.16142    0.70539    0.43793    1.000
    Si907    Si       0.12169    0.71196    0.41943    1.000
    N908     N        0.13195    0.63769    0.46751    1.000
    N909     N        0.11268    0.67314    0.40513    1.000
    Si910    Si       0.14599    0.54436    0.58100    1.000
    Si911    Si       0.15164    0.62017    0.55760    1.000
    N912     N        0.13581    0.55486    0.50842    1.000
    N913     N        0.12069    0.62974    0.52935    1.000
    N914     N        0.16242    0.51179    0.55596    1.000
    N915     N        0.16896    0.53840    0.62034    1.000
    N916     N        0.15592    0.64740    0.59138    1.000
    Si917    Si       0.13643    0.72715    0.53276    1.000
    N918     N        0.13261    0.70006    0.56664    1.000
    N919     N        0.15829    0.69724    0.50782    1.000
    N920     N        0.11210    0.75002    0.50359    1.000
    Si921    Si       0.12810    0.66595    0.50112    1.000
    N922     N        0.13479    0.59616    0.63134    1.000
    N923     N        0.14244    0.61345    0.73702    1.000
    Si924    Si       0.14385    0.60640    0.69435    1.000
    N925     N        0.15416    0.52949    0.74117    1.000
    Si926    Si       0.11481    0.75063    0.63405    1.000
    Si927    Si       0.12645    0.67844    0.74302    1.000
    N928     N        0.16456    0.63723    0.67346    1.000
    N929     N        0.11320    0.73745    0.67477    1.000
    N930     N        0.15514    0.74105    0.62210    1.000
    Si931    Si       0.12873    0.69670    0.67390    1.000
    Si932    Si       0.14299    0.64110    0.63224    1.000
    N933     N        0.11099    0.72096    0.74551    1.000
    N934     N        0.11996    0.67559    0.63564    1.000
    N935     N        0.11989    0.57618    0.78898    1.000
    N936     N        0.13306    0.51830    0.81150    1.000
    Si937    Si       0.15020    0.54680    0.78023    1.000
    Si938    Si       0.10910    0.61233    0.76582    1.000
    Si939    Si       0.11897    0.73754    0.78493    1.000
    N940     N        0.16043    0.73576    0.79259    1.000
    N941     N        0.15980    0.74412    0.86326    1.000
    N942     N        0.11049    0.65437    0.77743    1.000
    Si943    Si       0.13906    0.66118    0.87177    1.000
    N944     N        0.16265    0.67283    0.83808    1.000
    N945     N        0.16319    0.54026    0.87092    1.000
    Si946    Si       0.12716    0.54887    0.89258    1.000
    Si947    Si       0.13801    0.60719    0.93298    1.000
    N948     N        0.14309    0.56517    0.92983    1.000
    Si949    Si       0.15638    0.53359    0.95833    1.000
    N950     N        0.13391    0.62382    0.89099    1.000
    N951     N        0.13024    0.74941    0.92348    1.000
    Si952    Si       0.12548    0.74487    0.96868    1.000
    Si953    Si       0.16018    0.72723    0.90283    1.000
    N954     N        0.13428    0.70381    0.97772    1.000
    N955     N        0.15817    0.63746    0.95852    1.000
    N956     N        0.14632    0.68562    0.90702    1.000
    Si957    Si       0.13266    0.67399    0.94661    1.000
    Si958    Si       0.12069    0.86397    0.03493    1.000
    N959     N        0.12366    0.84478    0.07360    1.000
    N960     N        0.14278    0.78268    0.11352    1.000
    Si961    Si       0.15957    0.82271    0.08985    1.000
    N962     N        0.14821    0.89921    0.03726    1.000
    Si963    Si       0.14698    0.93282    0.01199    1.000
    N964     N        0.12215    0.97910    0.07233    1.000
    Si965    Si       0.16562    0.98646    0.05837    1.000
    Si966    Si       0.10942    0.98817    0.99650    1.000
    N967     N        0.12640    0.77032    0.18400    1.000
    N968     N        0.14966    0.84035    0.23933    1.000
    Si969    Si       0.11144    0.77983    0.14450    1.000
    Si970    Si       0.15154    0.88251    0.13033    1.000
    N971     N        0.10881    0.87699    0.13298    1.000
    Si972    Si       0.10973    0.85765    0.22934    1.000
    N973     N        0.10833    0.89255    0.20115    1.000
    Si974    Si       0.14225    0.91944    0.19959    1.000
    N975     N        0.13507    0.96297    0.20002    1.000
    Si976    Si       0.16142    0.99146    0.17960    1.000
    Si977    Si       0.10932    0.98715    0.22589    1.000
    N978     N        0.13561    0.82836    0.30871    1.000
    Si979    Si       0.13346    0.79932    0.34319    1.000
    Si980    Si       0.15041    0.81112    0.27089    1.000
    N981     N        0.12363    0.78011    0.25661    1.000
    N982     N        0.12623    0.76029    0.32429    1.000
    N983     N        0.16109    0.87975    0.35633    1.000
    N984     N        0.15530    0.95567    0.28393    1.000
    Si985    Si       0.12709    0.90663    0.35134    1.000
    Si986    Si       0.11395    0.95478    0.29435    1.000
    N987     N        0.15261    0.94014    0.36827    1.000
    Si988    Si       0.16353    0.99859    0.27978    1.000
    N989     N        0.12555    0.79594    0.44520    1.000
    Si990    Si       0.11390    0.78978    0.48965    1.000
    Si991    Si       0.16340    0.81568    0.45518    1.000
    N992     N        0.16495    0.85699    0.44995    1.000
    Si993    Si       0.14319    0.88819    0.47292    1.000
    N994     N        0.15814    0.96282    0.42944    1.000
    N995     N        0.12391    0.97104    0.48979    1.000
    N996     N        0.11427    0.91409    0.44797    1.000
    Si997    Si       0.16071    0.97660    0.38792    1.000
    Si998    Si       0.11856    0.95932    0.44851    1.000
    Si999    Si       0.14839    0.84240    0.52968    1.000
    N1000    N        0.15249    0.86105    0.57430    1.000
    Si1001   Si       0.14131    0.81544    0.59472    1.000
    N1002    N        0.12320    0.87064    0.50886    1.000
    N1003    N        0.11743    0.81637    0.55626    1.000
    N1004    N        0.15487    0.80634    0.50114    1.000
    N1005    N        0.11130    0.78976    0.61723    1.000
    Si1006   Si       0.13141    0.88068    0.60669    1.000
    N1007    N        0.13223    0.95638    0.57505    1.000
    Si1008   Si       0.14728    0.99786    0.57503    1.000
    Si1009   Si       0.15864    0.99280    0.50528    1.000
    N1010    N        0.13129    0.84676    0.63218    1.000
    Si1011   Si       0.12773    0.85591    0.67527    1.000
    N1012    N        0.16158    0.84594    0.69998    1.000
    N1013    N        0.15830    0.91127    0.61844    1.000
    Si1014   Si       0.12921    0.00073    0.64529    1.000
    Si1015   Si       0.15045    0.92686    0.65804    1.000
    N1016    N        0.13089    0.89396    0.73611    1.000
    N1017    N        0.15698    0.96914    0.65884    1.000
    N1018    N        0.11704    0.90253    0.67234    1.000
    N1019    N        0.10992    0.00567    0.72586    1.000
    Si1020   Si       0.13756    0.80899    0.78907    1.000
    Si1021   Si       0.14518    0.78687    0.86039    1.000
    N1022    N        0.11756    0.84770    0.78953    1.000
    N1023    N        0.16240    0.80522    0.82433    1.000
    N1024    N        0.10622    0.77942    0.78376    1.000
    N1025    N        0.10263    0.79542    0.87051    1.000
    Si1026   Si       0.12699    0.88790    0.77792    1.000
    N1027    N        0.12909    0.98376    0.82060    1.000
    Si1028   Si       0.11920    0.96491    0.85773    1.000
    N1029    N        0.15957    0.90551    0.80033    1.000
    N1030    N        0.12659    0.92218    0.86298    1.000
    Si1031   Si       0.16369    0.91271    0.84331    1.000
    N1032    N        0.15907    0.81463    0.89262    1.000
    N1033    N        0.14145    0.78014    0.98670    1.000
    Si1034   Si       0.12225    0.83547    0.90342    1.000
    N1035    N        0.13701    0.87658    0.91853    1.000
    Si1036   Si       0.14717    0.87535    0.96309    1.000
    Si1037   Si       0.11424    0.81326    0.98013    1.000
    N1038    N        0.12700    0.85077    0.99390    1.000
    N1039    N        0.14792    0.98265    0.88762    1.000
    N1040    N        0.15878    0.91692    0.97339    1.000
    Si1041   Si       0.13334    0.00558    0.92178    1.000
    N1042    N        0.13975    0.99601    0.96411    1.000
    N1043    N        0.20577    0.07549    0.05416    1.000
    Si1044   Si       0.18972    0.11596    0.07076    1.000
    Si1045   Si       0.18122    0.05580    0.02712    1.000
    N1046    N        0.19789    0.12216    0.11213    1.000
    N1047    N        0.20321    0.02720    0.00171    1.000
    N1048    N        0.19666    0.03863    0.11730    1.000
    Si1049   Si       0.16651    0.05593    0.09318    1.000
    N1050    N        0.19795    0.13989    0.03704    1.000
    Si1051   Si       0.20082    0.22959    0.01734    1.000
    N1052    N        0.17012    0.20011    0.00856    1.000
    N1053    N        0.19493    0.01206    0.20078    1.000
    Si1054   Si       0.21656    0.21934    0.14235    1.000
    N1055    N        0.17220    0.21508    0.14380    1.000
    Si1056   Si       0.19121    0.14555    0.21547    1.000
    N1057    N        0.18898    0.15138    0.17092    1.000
    N1058    N        0.20274    0.18237    0.23797    1.000
    Si1059   Si       0.22125    0.14632    0.14067    1.000
    Si1060   Si       0.18849    0.05415    0.32330    1.000
    Si1061   Si       0.21889    0.04359    0.26320    1.000
    N1062    N        0.17234    0.09296    0.30756    1.000
    N1063    N        0.19411    0.05575    0.36704    1.000
    N1064    N        0.18627    0.06474    0.24315    1.000
    N1065    N        0.18179    0.15689    0.33002    1.000
    Si1066   Si       0.18850    0.21699    0.25879    1.000
    N1067    N        0.17872    0.21890    0.30159    1.000
    N1068    N        0.18873    0.22047    0.36765    1.000
    Si1069   Si       0.16454    0.19632    0.33792    1.000
    Si1070   Si       0.18256    0.08348    0.39838    1.000
    N1071    N        0.21168    0.08203    0.48171    1.000
    Si1072   Si       0.19575    0.04962    0.45654    1.000
    N1073    N        0.18458    0.01529    0.47804    1.000
    Si1074   Si       0.21991    0.02359    0.38736    1.000
    N1075    N        0.21878    0.10874    0.41380    1.000
    N1076    N        0.22523    0.03731    0.42713    1.000
    Si1077   Si       0.22008    0.11891    0.45714    1.000
    Si1078   Si       0.19165    0.17825    0.42862    1.000
    Si1079   Si       0.17227    0.23079    0.47933    1.000
    N1080    N        0.19428    0.15248    0.46192    1.000
    N1081    N        0.19621    0.22132    0.44204    1.000
    N1082    N        0.19192    0.07776    0.55649    1.000
    Si1083   Si       0.19091    0.09438    0.51812    1.000
    Si1084   Si       0.17724    0.09379    0.59411    1.000
    N1085    N        0.20752    0.13517    0.52404    1.000
    N1086    N        0.18973    0.13556    0.59034    1.000
    N1087    N        0.19320    0.20418    0.50817    1.000
    Si1088   Si       0.18245    0.24370    0.61306    1.000
    Si1089   Si       0.18416    0.16384    0.50210    1.000
    Si1090   Si       0.16998    0.16700    0.61555    1.000
    N1091    N        0.18975    0.07902    0.63421    1.000
    N1092    N        0.21053    0.01366    0.64940    1.000
    Si1093   Si       0.22290    0.04983    0.63397    1.000
    N1094    N        0.21804    0.17768    0.70684    1.000
    N1095    N        0.19337    0.20336    0.62021    1.000
    Si1096   Si       0.22387    0.14994    0.67221    1.000
    Si1097   Si       0.17967    0.17767    0.72871    1.000
    N1098    N        0.18311    0.14644    0.65681    1.000
    Si1099   Si       0.20998    0.04574    0.85373    1.000
    N1100    N        0.17827    0.07404    0.86576    1.000
    Si1101   Si       0.16967    0.07351    0.76342    1.000
    N1102    N        0.18605    0.01189    0.83916    1.000
    N1103    N        0.16942    0.02950    0.77806    1.000
    N1104    N        0.20857    0.07901    0.74903    1.000
    Si1105   Si       0.17297    0.13744    0.79199    1.000
    N1106    N        0.20215    0.14591    0.82476    1.000
    Si1107   Si       0.19218    0.18288    0.84604    1.000
    N1108    N        0.18460    0.21933    0.82257    1.000
    Si1109   Si       0.20048    0.24352    0.75599    1.000
    N1110    N        0.19042    0.14203    0.75300    1.000
    Si1111   Si       0.20838    0.25614    0.82479    1.000
    N1112    N        0.17054    0.21209    0.75521    1.000
    N1113    N        0.21324    0.07884    0.93045    1.000
    Si1114   Si       0.18231    0.05904    0.90681    1.000
    N1115    N        0.20105    0.02045    0.89766    1.000
    Si1116   Si       0.22321    0.11634    0.94956    1.000
    N1117    N        0.19288    0.19810    0.93960    1.000
    Si1118   Si       0.19082    0.17592    0.97777    1.000
    N1119    N        0.20794    0.25188    0.98029    1.000
    Si1120   Si       0.19245    0.24375    0.94068    1.000
    N1121    N        0.18634    0.13543    0.96570    1.000
    Si1122   Si       0.20632    0.34626    0.06282    1.000
    N1123    N        0.21702    0.37571    0.09552    1.000
    Si1124   Si       0.20959    0.28883    0.11495    1.000
    N1125    N        0.21772    0.30774    0.07767    1.000
    N1126    N        0.16819    0.32954    0.04350    1.000
    N1127    N        0.19302    0.25998    0.04714    1.000
    N1128    N        0.16687    0.28555    0.10984    1.000
    Si1129   Si       0.16681    0.28975    0.06257    1.000
    N1130    N        0.20596    0.44711    0.10678    1.000
    N1131    N        0.19504    0.42326    0.04779    1.000
    Si1132   Si       0.19743    0.46258    0.06499    1.000
    Si1133   Si       0.18871    0.40880    0.09170    1.000
    Si1134   Si       0.16970    0.41640    0.01290    1.000
    Si1135   Si       0.20313    0.33140    0.17789    1.000
    N1136    N        0.21186    0.37249    0.16325    1.000
    N1137    N        0.22220    0.33184    0.22001    1.000
    Si1138   Si       0.19097    0.35120    0.24184    1.000
    Si1139   Si       0.19724    0.40185    0.18861    1.000
    Si1140   Si       0.20690    0.47308    0.19836    1.000
    N1141    N        0.17741    0.44119    0.19598    1.000
    N1142    N        0.18659    0.35766    0.28350    1.000
    N1143    N        0.17496    0.28573    0.35394    1.000
    N1144    N        0.17622    0.28411    0.28374    1.000
    Si1145   Si       0.18687    0.26023    0.31830    1.000
    Si1146   Si       0.20444    0.38542    0.31014    1.000
    N1147    N        0.18597    0.39769    0.34665    1.000
    N1148    N        0.17352    0.43193    0.26252    1.000
    Si1149   Si       0.21775    0.43379    0.25252    1.000
    Si1150   Si       0.21446    0.31819    0.40718    1.000
    N1151    N        0.18239    0.35175    0.40250    1.000
    N1152    N        0.18456    0.34384    0.47723    1.000
    N1153    N        0.19762    0.28011    0.41632    1.000
    Si1154   Si       0.22198    0.36232    0.48658    1.000
    Si1155   Si       0.16435    0.30502    0.47818    1.000
    Si1156   Si       0.17208    0.25832    0.38831    1.000
    N1157    N        0.19391    0.48716    0.40605    1.000
    Si1158   Si       0.20164    0.38648    0.38592    1.000
    Si1159   Si       0.21636    0.42903    0.44485    1.000
    N1160    N        0.20091    0.45379    0.47648    1.000
    N1161    N        0.18831    0.41762    0.41368    1.000
    Si1162   Si       0.16513    0.45292    0.40275    1.000
    N1163    N        0.18469    0.31118    0.55634    1.000
    Si1164   Si       0.21246    0.31749    0.59024    1.000
    Si1165   Si       0.19191    0.27103    0.54172    1.000
    N1166    N        0.21455    0.27550    0.60647    1.000
    N1167    N        0.17762    0.26986    0.49915    1.000
    Si1168   Si       0.18345    0.38210    0.61556    1.000
    N1169    N        0.18183    0.40151    0.57467    1.000
    N1170    N        0.20222    0.48091    0.60496    1.000
    N1171    N        0.20383    0.46092    0.54253    1.000
    Si1172   Si       0.21568    0.41986    0.55371    1.000
    Si1173   Si       0.20779    0.50573    0.56786    1.000
    Si1174   Si       0.22500    0.48426    0.50362    1.000
    N1175    N        0.20297    0.34566    0.62234    1.000
    N1176    N        0.20433    0.36848    0.68714    1.000
    Si1177   Si       0.20691    0.32999    0.66566    1.000
    N1178    N        0.19966    0.26615    0.71978    1.000
    Si1179   Si       0.21850    0.36864    0.72617    1.000
    N1180    N        0.16786    0.31338    0.67444    1.000
    N1181    N        0.20660    0.41448    0.63612    1.000
    Si1182   Si       0.19334    0.40928    0.67806    1.000
    N1183    N        0.21995    0.43656    0.70055    1.000
    N1184    N        0.19123    0.50125    0.67428    1.000
    Si1185   Si       0.19786    0.43844    0.73913    1.000
    Si1186   Si       0.17408    0.49886    0.63354    1.000
    N1187    N        0.19254    0.39671    0.74944    1.000
    N1188    N        0.19652    0.28638    0.85020    1.000
    N1189    N        0.20136    0.27485    0.78638    1.000
    N1190    N        0.19914    0.34409    0.79738    1.000
    Si1191   Si       0.19965    0.31266    0.76658    1.000
    Si1192   Si       0.17864    0.32413    0.83148    1.000
    N1193    N        0.17362    0.35651    0.85927    1.000
    Si1194   Si       0.18210    0.38327    0.78962    1.000
    N1195    N        0.18189    0.47941    0.83883    1.000
    N1196    N        0.19517    0.41753    0.81623    1.000
    Si1197   Si       0.22051    0.47568    0.86048    1.000
    N1198    N        0.16489    0.46382    0.74749    1.000
    N1199    N        0.22309    0.25752    0.91328    1.000
    Si1200   Si       0.19420    0.36777    0.95980    1.000
    Si1201   Si       0.20836    0.36352    0.88476    1.000
    Si1202   Si       0.20396    0.29302    0.89240    1.000
    N1203    N        0.16785    0.30585    0.90934    1.000
    N1204    N        0.19011    0.38420    0.91811    1.000
    N1205    N        0.20976    0.44902    0.89379    1.000
    Si1206   Si       0.20065    0.47501    0.92879    1.000
    N1207    N        0.19771    0.40594    0.98164    1.000
    Si1208   Si       0.17504    0.42200    0.90649    1.000
    N1209    N        0.20034    0.54922    0.05691    1.000
    Si1210   Si       0.20069    0.56479    0.01557    1.000
    N1211    N        0.20659    0.60523    0.00841    1.000
    Si1212   Si       0.17010    0.62894    0.00011    1.000
    N1213    N        0.17205    0.54092    0.11914    1.000
    Si1214   Si       0.21371    0.68274    0.03197    1.000
    Si1215   Si       0.19779    0.64869    0.09247    1.000
    N1216    N        0.20119    0.69086    0.10288    1.000
    N1217    N        0.17658    0.66786    0.01852    1.000
    N1218    N        0.21592    0.75551    0.11661    1.000
    N1219    N        0.22369    0.55017    0.23618    1.000
    N1220    N        0.19560    0.62627    0.12929    1.000
    Si1221   Si       0.20549    0.53755    0.14843    1.000
    Si1222   Si       0.17884    0.54577    0.21611    1.000
    N1223    N        0.19492    0.51398    0.18378    1.000
    Si1224   Si       0.22038    0.61736    0.16266    1.000
    N1225    N        0.19837    0.62861    0.19714    1.000
    N1226    N        0.17260    0.58636    0.24545    1.000
    Si1227   Si       0.20890    0.71329    0.24240    1.000
    N1228    N        0.18297    0.74060    0.22092    1.000
    Si1229   Si       0.21753    0.65194    0.23006    1.000
    Si1230   Si       0.19047    0.60423    0.32708    1.000
    Si1231   Si       0.21448    0.58641    0.26020    1.000
    N1232    N        0.21212    0.52935    0.35439    1.000
    N1233    N        0.21143    0.57587    0.30183    1.000
    Si1234   Si       0.21108    0.53516    0.31171    1.000
    N1235    N        0.18897    0.51357    0.27685    1.000
    N1236    N        0.21440    0.62602    0.35430    1.000
    N1237    N        0.16459    0.58552    0.35532    1.000
    Si1238   Si       0.20076    0.69775    0.33217    1.000
    N1239    N        0.18709    0.67632    0.25421    1.000
    N1240    N        0.17070    0.58402    0.46889    1.000
    Si1241   Si       0.17846    0.52111    0.38198    1.000
    Si1242   Si       0.17897    0.58873    0.39626    1.000
    Si1243   Si       0.21229    0.59429    0.46074    1.000
    N1244    N        0.21980    0.59053    0.41453    1.000
    N1245    N        0.17436    0.51395    0.47595    1.000
    N1246    N        0.16841    0.63077    0.40786    1.000
    N1247    N        0.16436    0.55007    0.41170    1.000
    N1248    N        0.22287    0.63153    0.47875    1.000
    Si1249   Si       0.18266    0.70985    0.47392    1.000
    Si1250   Si       0.20638    0.64628    0.39455    1.000
    N1251    N        0.19508    0.68400    0.37298    1.000
    N1252    N        0.21039    0.74109    0.40417    1.000
    Si1253   Si       0.17887    0.71444    0.39835    1.000
    N1254    N        0.19148    0.75288    0.47725    1.000
    Si1255   Si       0.20612    0.57950    0.57877    1.000
    N1256    N        0.21487    0.52479    0.52611    1.000
    Si1257   Si       0.17148    0.53170    0.51576    1.000
    N1258    N        0.20670    0.59836    0.61751    1.000
    N1259    N        0.16352    0.58000    0.56791    1.000
    N1260    N        0.16438    0.75626    0.54685    1.000
    Si1261   Si       0.22172    0.63303    0.52277    1.000
    N1262    N        0.18306    0.64545    0.53864    1.000
    N1263    N        0.19829    0.70917    0.58416    1.000
    Si1264   Si       0.17223    0.67892    0.56537    1.000
    Si1265   Si       0.18059    0.75181    0.58710    1.000
    N1266    N        0.17015    0.57336    0.68092    1.000
    N1267    N        0.21178    0.61974    0.72808    1.000
    Si1268   Si       0.21004    0.59077    0.69689    1.000
    Si1269   Si       0.17975    0.53344    0.70361    1.000
    Si1270   Si       0.17339    0.57773    0.63855    1.000
    N1271    N        0.21684    0.55089    0.71340    1.000
    N1272    N        0.21739    0.66499    0.63782    1.000
    Si1273   Si       0.18006    0.74303    0.65880    1.000
    Si1274   Si       0.19512    0.66919    0.67521    1.000
    N1275    N        0.17052    0.70562    0.67719    1.000
    N1276    N        0.21919    0.74080    0.64144    1.000
    N1277    N        0.20849    0.73959    0.74133    1.000
    Si1278   Si       0.20810    0.69689    0.74308    1.000
    N1279    N        0.22500    0.67940    0.70449    1.000
    N1280    N        0.19200    0.62068    0.79208    1.000
    N1281    N        0.18420    0.55117    0.80733    1.000
    Si1282   Si       0.21356    0.58188    0.80290    1.000
    Si1283   Si       0.17859    0.63023    0.75255    1.000
    Si1284   Si       0.17072    0.52105    0.83451    1.000
    Si1285   Si       0.17360    0.71716    0.83076    1.000
    Si1286   Si       0.20050    0.65656    0.81935    1.000
    N1287    N        0.21541    0.70091    0.83021    1.000
    N1288    N        0.17086    0.67322    0.74863    1.000
    N1289    N        0.21639    0.57554    0.91090    1.000
    Si1290   Si       0.19644    0.53934    0.89960    1.000
    N1291    N        0.18541    0.51529    0.93320    1.000
    N1292    N        0.21106    0.75275    0.98974    1.000
    N1293    N        0.19939    0.72702    0.92158    1.000
    Si1294   Si       0.22298    0.75122    0.94721    1.000
    N1295    N        0.19193    0.85096    0.06512    1.000
    Si1296   Si       0.20751    0.81532    0.04816    1.000
    Si1297   Si       0.17653    0.77332    0.01181    1.000
    N1298    N        0.19858    0.81309    0.00525    1.000
    N1299    N        0.17164    0.79083    0.05885    1.000
    Si1300   Si       0.18245    0.89256    0.06401    1.000
    N1301    N        0.20334    0.97904    0.07799    1.000
    N1302    N        0.21492    0.91931    0.04909    1.000
    N1303    N        0.17334    0.90741    0.10408    1.000
    N1304    N        0.16798    0.97107    0.01767    1.000
    Si1305   Si       0.21026    0.99592    0.11611    1.000
    Si1306   Si       0.17719    0.76359    0.13576    1.000
    N1307    N        0.20463    0.84905    0.19241    1.000
    Si1308   Si       0.20994    0.76964    0.20370    1.000
    Si1309   Si       0.20150    0.82921    0.15552    1.000
    N1310    N        0.19027    0.78655    0.16799    1.000
    Si1311   Si       0.18572    0.86533    0.22861    1.000
    N1312    N        0.17025    0.84360    0.12765    1.000
    Si1313   Si       0.18531    0.93650    0.13474    1.000
    N1314    N        0.17854    0.97848    0.14288    1.000
    N1315    N        0.17019    0.90672    0.22987    1.000
    N1316    N        0.16462    0.91094    0.16366    1.000
    N1317    N        0.18754    0.79368    0.28268    1.000
    Si1318   Si       0.17366    0.85055    0.32651    1.000
    N1319    N        0.17210    0.81181    0.35843    1.000
    N1320    N        0.22067    0.85322    0.32564    1.000
    N1321    N        0.22474    0.86732    0.24659    1.000
    N1322    N        0.17952    0.88387    0.29298    1.000
    N1323    N        0.20635    0.99933    0.26753    1.000
    Si1324   Si       0.17679    0.92159    0.27067    1.000
    N1325    N        0.21768    0.92217    0.34210    1.000
    N1326    N        0.21972    0.93000    0.27441    1.000
    Si1327   Si       0.22561    0.89463    0.30903    1.000
    Si1328   Si       0.18774    0.91352    0.37128    1.000
    Si1329   Si       0.21406    0.76435    0.44036    1.000
    N1330    N        0.19430    0.80202    0.42857    1.000
    Si1331   Si       0.20308    0.87012    0.43047    1.000
    Si1332   Si       0.20377    0.81249    0.38813    1.000
    N1333    N        0.22417    0.96460    0.44835    1.000
    Si1334   Si       0.19128    0.93855    0.44214    1.000
    N1335    N        0.19931    0.90922    0.41204    1.000
    Si1336   Si       0.21789    0.98775    0.48387    1.000
    N1337    N        0.17944    0.91336    0.47483    1.000
    N1338    N        0.20563    0.98361    0.38160    1.000
    N1339    N        0.18165    0.79413    0.59625    1.000
    Si1340   Si       0.18377    0.77519    0.51514    1.000
    N1341    N        0.19182    0.86275    0.52546    1.000
    N1342    N        0.21308    0.85878    0.60279    1.000
    Si1343   Si       0.19305    0.87540    0.56832    1.000
    Si1344   Si       0.21700    0.81566    0.60576    1.000
    N1345    N        0.18771    0.98279    0.59015    1.000
    N1346    N        0.19674    0.91902    0.56560    1.000
    N1347    N        0.19458    0.96971    0.51846    1.000
    Si1348   Si       0.17123    0.94176    0.58945    1.000
    Si1349   Si       0.22202    0.94450    0.54113    1.000
    Si1350   Si       0.21009    0.88784    0.49578    1.000
    N1351    N        0.17630    0.77767    0.68406    1.000
    Si1352   Si       0.17810    0.80829    0.71484    1.000
    N1353    N        0.21967    0.82261    0.71975    1.000
    N1354    N        0.17859    0.00487    0.71386    1.000
    Si1355   Si       0.16926    0.88515    0.71517    1.000
    N1356    N        0.18173    0.91059    0.68313    1.000
    Si1357   Si       0.22280    0.91567    0.67162    1.000
    Si1358   Si       0.19455    0.98546    0.67791    1.000
    Si1359   Si       0.20677    0.80669    0.82480    1.000
    Si1360   Si       0.18798    0.76310    0.76982    1.000
    Si1361   Si       0.22068    0.86993    0.85842    1.000
    N1362    N        0.22212    0.77929    0.79490    1.000
    N1363    N        0.18008    0.87922    0.86496    1.000
    N1364    N        0.22016    0.78852    0.86218    1.000
    N1365    N        0.16502    0.79862    0.75600    1.000
    N1366    N        0.19825    0.88453    0.74641    1.000
    Si1367   Si       0.19174    0.99879    0.75476    1.000
    N1368    N        0.19243    0.94537    0.84664    1.000
    Si1369   Si       0.19375    0.91515    0.77706    1.000
    N1370    N        0.19818    0.95593    0.76646    1.000
    N1371    N        0.18391    0.85253    0.95144    1.000
    Si1372   Si       0.21197    0.82173    0.96385    1.000
    Si1373   Si       0.18346    0.87457    0.91077    1.000
    N1374    N        0.21000    0.79068    0.93448    1.000
    Si1375   Si       0.20133    0.80674    0.89754    1.000
    Si1376   Si       0.17798    0.99498    0.98330    1.000
    N1377    N        0.20071    0.91369    0.91953    1.000
    Si1378   Si       0.19520    0.93406    0.95676    1.000
    Si1379   Si       0.19076    0.98308    0.87210    1.000
    N1380    N        0.20573    0.97666    0.95103    1.000
    Si1381   Si       0.22943    0.99584    0.92083    1.000
    Si1382   Si       0.24700    0.07204    0.06639    1.000
    N1383    N        0.25359    0.03063    0.05270    1.000
    N1384    N        0.25828    0.07510    0.10692    1.000
    Si1385   Si       0.24624    0.02500    0.01093    1.000
    N1386    N        0.27326    0.09778    0.04230    1.000
    Si1387   Si       0.27861    0.09077    0.00007    1.000
    Si1388   Si       0.27489    0.00921    0.08273    1.000
    Si1389   Si       0.23615    0.14256    0.01750    1.000
    N1390    N        0.26324    0.16484    0.04540    1.000
    Si1391   Si       0.26266    0.19815    0.01696    1.000
    N1392    N        0.24661    0.23808    0.02532    1.000
    Si1393   Si       0.27012    0.25134    0.10424    1.000
    Si1394   Si       0.25965    0.17670    0.08930    1.000
    N1395    N        0.22913    0.24989    0.11452    1.000
    N1396    N        0.23324    0.18328    0.12352    1.000
    N1397    N        0.23110    0.12698    0.22109    1.000
    N1398    N        0.25487    0.12231    0.15479    1.000
    Si1399   Si       0.25371    0.09881    0.19322    1.000
    N1400    N        0.24265    0.06044    0.17328    1.000
    Si1401   Si       0.23721    0.02517    0.19987    1.000
    N1402    N        0.25214    0.04734    0.23406    1.000
    Si1403   Si       0.23471    0.05060    0.13359    1.000
    N1404    N        0.26969    0.19123    0.21952    1.000
    N1405    N        0.22507    0.23605    0.18126    1.000
    Si1406   Si       0.24298    0.16444    0.24075    1.000
    Si1407   Si       0.24856    0.22944    0.21643    1.000
    Si1408   Si       0.25748    0.02258    0.32331    1.000
    N1409    N        0.24511    0.12663    0.34664    1.000
    N1410    N        0.25767    0.02706    0.36656    1.000
    N1411    N        0.22900    0.05033    0.30432    1.000
    N1412    N        0.24724    0.16039    0.28344    1.000
    N1413    N        0.24351    0.19209    0.33657    1.000
    Si1414   Si       0.27436    0.18676    0.30606    1.000
    N1415    N        0.23162    0.23735    0.25492    1.000
    Si1416   Si       0.22391    0.15563    0.32223    1.000
    Si1417   Si       0.25641    0.25599    0.28729    1.000
    N1418    N        0.26107    0.11537    0.47186    1.000
    Si1419   Si       0.25519    0.07490    0.48936    1.000
    Si1420   Si       0.22974    0.20726    0.37440    1.000
    Si1421   Si       0.24435    0.13593    0.39065    1.000
    Si1422   Si       0.22698    0.25073    0.43147    1.000
    N1423    N        0.25158    0.23992    0.39398    1.000
    N1424    N        0.22746    0.17470    0.40195    1.000
    N1425    N        0.25895    0.07679    0.53119    1.000
    N1426    N        0.24701    0.10707    0.58363    1.000
    Si1427   Si       0.23206    0.06916    0.56573    1.000
    Si1428   Si       0.27549    0.09419    0.61529    1.000
    N1429    N        0.23296    0.03766    0.59484    1.000
    N1430    N        0.26449    0.21084    0.50697    1.000
    Si1431   Si       0.23328    0.19034    0.61248    1.000
    N1432    N        0.23184    0.18588    0.56891    1.000
    Si1433   Si       0.22921    0.21060    0.53157    1.000
    N1434    N        0.23052    0.25205    0.54747    1.000
    N1435    N        0.27427    0.14653    0.54084    1.000
    N1436    N        0.25874    0.22535    0.61888    1.000
    Si1437   Si       0.24835    0.25421    0.58767    1.000
    Si1438   Si       0.22791    0.14278    0.56489    1.000
    N1439    N        0.24028    0.11886    0.69781    1.000
    Si1440   Si       0.27180    0.09518    0.67995    1.000
    N1441    N        0.25995    0.06809    0.64696    1.000
    Si1442   Si       0.22361    0.11835    0.73859    1.000
    N1443    N        0.25332    0.23347    0.68962    1.000
    N1444    N        0.24974    0.16121    0.63920    1.000
    Si1445   Si       0.24982    0.20389    0.72103    1.000
    Si1446   Si       0.28047    0.23225    0.65487    1.000
    Si1447   Si       0.26767    0.07131    0.83676    1.000
    N1448    N        0.26942    0.11318    0.83105    1.000
    Si1449   Si       0.23520    0.05217    0.77277    1.000
    N1450    N        0.23293    0.05471    0.81545    1.000
    N1451    N        0.27481    0.05786    0.75589    1.000
    Si1452   Si       0.27795    0.01621    0.74733    1.000
    N1453    N        0.23375    0.00923    0.76131    1.000
    N1454    N        0.25595    0.13248    0.76772    1.000
    Si1455   Si       0.24261    0.14050    0.80810    1.000
    N1456    N        0.25460    0.18230    0.81383    1.000
    Si1457   Si       0.25967    0.22052    0.79312    1.000
    Si1458   Si       0.26425    0.18961    0.85570    1.000
    N1459    N        0.23721    0.22267    0.75652    1.000
    N1460    N        0.25074    0.25061    0.82299    1.000
    N1461    N        0.24617    0.06007    0.87390    1.000
    Si1462   Si       0.25330    0.05966    0.91756    1.000
    N1463    N        0.26262    0.01980    0.93357    1.000
    N1464    N        0.24541    0.11383    0.98622    1.000
    N1465    N        0.27380    0.05057    0.99011    1.000
    N1466    N        0.22613    0.19129    0.87384    1.000
    Si1467   Si       0.28243    0.13432    0.91140    1.000
    Si1468   Si       0.26512    0.25449    0.92037    1.000
    Si1469   Si       0.22839    0.18782    0.91676    1.000
    N1470    N        0.24165    0.14548    0.92364    1.000
    N1471    N        0.26469    0.21033    0.92457    1.000
    N1472    N        0.23074    0.18100    0.99319    1.000
    N1473    N        0.24658    0.30164    0.01257    1.000
    Si1474   Si       0.23710    0.27631    0.04935    1.000
    N1475    N        0.27354    0.28110    0.07167    1.000
    Si1476   Si       0.25094    0.34300    0.00216    1.000
    N1477    N        0.22761    0.36496    0.02983    1.000
    N1478    N        0.27048    0.33818    0.12034    1.000
    N1479    N        0.25497    0.42990    0.00583    1.000
    N1480    N        0.26818    0.41476    0.06395    1.000
    Si1481   Si       0.26924    0.45809    0.06167    1.000
    Si1482   Si       0.23444    0.40672    0.03732    1.000
    N1483    N        0.27428    0.46467    0.10618    1.000
    N1484    N        0.23324    0.48234    0.05272    1.000
    Si1485   Si       0.24365    0.37220    0.13061    1.000
    Si1486   Si       0.26955    0.30978    0.15544    1.000
    Si1487   Si       0.26217    0.32716    0.23423    1.000
    N1488    N        0.28326    0.31492    0.19842    1.000
    N1489    N        0.22527    0.30486    0.15293    1.000
    Si1490   Si       0.23592    0.46940    0.12733    1.000
    N1491    N        0.27168    0.39823    0.15330    1.000
    N1492    N        0.22891    0.47099    0.23615    1.000
    N1493    N        0.23510    0.45856    0.16837    1.000
    Si1494   Si       0.25963    0.42609    0.18657    1.000
    N1495    N        0.23153    0.40894    0.21495    1.000
    Si1496   Si       0.27389    0.47163    0.23784    1.000
    Si1497   Si       0.25705    0.34656    0.35757    1.000
    Si1498   Si       0.25136    0.27094    0.35952    1.000
    N1499    N        0.24020    0.36140    0.32172    1.000
    N1500    N        0.27238    0.29409    0.26857    1.000
    N1501    N        0.27960    0.36215    0.25496    1.000
    N1502    N        0.23082    0.26374    0.32031    1.000
    Si1503   Si       0.26383    0.38174    0.29148    1.000
    N1504    N        0.23908    0.31063    0.37254    1.000
    Si1505   Si       0.28268    0.49015    0.30942    1.000
    N1506    N        0.23181    0.41180    0.28586    1.000
    N1507    N        0.28021    0.49213    0.35272    1.000
    Si1508   Si       0.25717    0.37206    0.42734    1.000
    N1509    N        0.25160    0.26833    0.46168    1.000
    Si1510   Si       0.26424    0.30902    0.46791    1.000
    N1511    N        0.24756    0.32909    0.43443    1.000
    N1512    N        0.24390    0.37862    0.38704    1.000
    Si1513   Si       0.23456    0.49090    0.42385    1.000
    N1514    N        0.24616    0.49697    0.46618    1.000
    N1515    N        0.24956    0.44938    0.42420    1.000
    N1516    N        0.23407    0.39165    0.45719    1.000
    N1517    N        0.25232    0.32651    0.57349    1.000
    Si1518   Si       0.25071    0.35142    0.53828    1.000
    N1519    N        0.24981    0.33125    0.50145    1.000
    N1520    N        0.24808    0.42713    0.58329    1.000
    N1521    N        0.26866    0.47996    0.52018    1.000
    N1522    N        0.22497    0.38390    0.52608    1.000
    Si1523   Si       0.22907    0.44848    0.61489    1.000
    N1524    N        0.27992    0.49814    0.59168    1.000
    N1525    N        0.27006    0.27656    0.73795    1.000
    Si1526   Si       0.27077    0.32015    0.73933    1.000
    N1527    N        0.23920    0.30370    0.67517    1.000
    Si1528   Si       0.23980    0.27115    0.70521    1.000
    N1529    N        0.22853    0.32817    0.73866    1.000
    Si1530   Si       0.28239    0.30841    0.66608    1.000
    N1531    N        0.28278    0.33913    0.63502    1.000
    N1532    N        0.25202    0.46726    0.64807    1.000
    N1533    N        0.25350    0.49575    0.71336    1.000
    N1534    N        0.25599    0.38688    0.73400    1.000
    N1535    N        0.27940    0.40088    0.67151    1.000
    Si1536   Si       0.22729    0.47817    0.68340    1.000
    Si1537   Si       0.26202    0.41957    0.70466    1.000
    Si1538   Si       0.28006    0.38326    0.76999    1.000
    N1539    N        0.28045    0.33858    0.84540    1.000
    Si1540   Si       0.27437    0.38182    0.84552    1.000
    Si1541   Si       0.26694    0.47427    0.75259    1.000
    Si1542   Si       0.23589    0.43004    0.80721    1.000
    N1543    N        0.26699    0.39789    0.80680    1.000
    N1544    N        0.25071    0.45772    0.83684    1.000
    N1545    N        0.23280    0.45030    0.76590    1.000
    N1546    N        0.24180    0.39206    0.87295    1.000
    Si1547   Si       0.26849    0.36072    0.94613    1.000
    Si1548   Si       0.27271    0.31897    0.88239    1.000
    N1549    N        0.23007    0.32629    0.88883    1.000
    N1550    N        0.28025    0.26282    0.95972    1.000
    N1551    N        0.28101    0.27694    0.88535    1.000
    Si1552   Si       0.24905    0.26571    0.99043    1.000
    N1553    N        0.23146    0.34609    0.96368    1.000
    N1554    N        0.23491    0.46307    0.95324    1.000
    N1555    N        0.25561    0.40160    0.93890    1.000
    N1556    N        0.28011    0.45445    0.90468    1.000
    Si1557   Si       0.27877    0.47038    0.94634    1.000
    Si1558   Si       0.24782    0.42534    0.90279    1.000
    Si1559   Si       0.23495    0.42323    0.96887    1.000
    Si1560   Si       0.23669    0.52420    0.04864    1.000
    N1561    N        0.27207    0.53512    0.07042    1.000
    N1562    N        0.23591    0.54041    0.00831    1.000
    Si1563   Si       0.27786    0.52946    0.11476    1.000
    Si1564   Si       0.23926    0.62977    0.01978    1.000
    N1565    N        0.28086    0.62647    0.01033    1.000
    N1566    N        0.22428    0.64726    0.05853    1.000
    N1567    N        0.27067    0.72356    0.09016    1.000
    Si1568   Si       0.24060    0.75286    0.02393    1.000
    Si1569   Si       0.22781    0.72153    0.08963    1.000
    N1570    N        0.23822    0.66993    0.99869    1.000
    N1571    N        0.22653    0.71945    0.04704    1.000
    N1572    N        0.23707    0.51541    0.12896    1.000
    N1573    N        0.26248    0.62624    0.15704    1.000
    Si1574   Si       0.26683    0.55607    0.22699    1.000
    Si1575   Si       0.27111    0.58311    0.15900    1.000
    N1576    N        0.22818    0.57403    0.15940    1.000
    N1577    N        0.27827    0.51461    0.24024    1.000
    N1578    N        0.27206    0.69570    0.15211    1.000
    Si1579   Si       0.26260    0.71272    0.19084    1.000
    N1580    N        0.24144    0.74957    0.18239    1.000
    N1581    N        0.23510    0.68987    0.21597    1.000
    N1582    N        0.27049    0.56752    0.36021    1.000
    Si1583   Si       0.25521    0.52729    0.36092    1.000
    N1584    N        0.23815    0.61989    0.25121    1.000
    N1585    N        0.24697    0.51276    0.30107    1.000
    Si1586   Si       0.27838    0.61680    0.27063    1.000
    Si1587   Si       0.23042    0.51045    0.25863    1.000
    N1588    N        0.28198    0.62218    0.31481    1.000
    N1589    N        0.23410    0.68107    0.30801    1.000
    Si1590   Si       0.24647    0.64581    0.33140    1.000
    Si1591   Si       0.25303    0.72042    0.30568    1.000
    N1592    N        0.27298    0.66508    0.35978    1.000
    N1593    N        0.23446    0.73686    0.26954    1.000
    N1594    N        0.22339    0.73601    0.33444    1.000
    N1595    N        0.24680    0.56915    0.47857    1.000
    N1596    N        0.25367    0.52636    0.40646    1.000
    Si1597   Si       0.25609    0.56956    0.40287    1.000
    Si1598   Si       0.27099    0.68625    0.39721    1.000
    N1599    N        0.23907    0.66229    0.41787    1.000
    N1600    N        0.27074    0.72894    0.38616    1.000
    Si1601   Si       0.24478    0.66471    0.46255    1.000
    Si1602   Si       0.23818    0.75118    0.37074    1.000
    Si1603   Si       0.24038    0.74176    0.49324    1.000
    N1604    N        0.22501    0.70093    0.47494    1.000
    Si1605   Si       0.24330    0.55987    0.52138    1.000
    Si1606   Si       0.27301    0.54094    0.58390    1.000
    N1607    N        0.22946    0.54348    0.58294    1.000
    N1608    N        0.27096    0.63128    0.60336    1.000
    N1609    N        0.28214    0.55287    0.54155    1.000
    N1610    N        0.22614    0.59291    0.54041    1.000
    N1611    N        0.26705    0.70047    0.60576    1.000
    N1612    N        0.24701    0.66304    0.54046    1.000
    Si1613   Si       0.27035    0.66649    0.57735    1.000
    N1614    N        0.27779    0.72740    0.51187    1.000
    Si1615   Si       0.27710    0.68563    0.51643    1.000
    Si1616   Si       0.22672    0.70340    0.61603    1.000
    N1617    N        0.24311    0.60529    0.67093    1.000
    N1618    N        0.28019    0.63168    0.71733    1.000
    Si1619   Si       0.24687    0.54111    0.74055    1.000
    Si1620   Si       0.23772    0.62566    0.63236    1.000
    Si1621   Si       0.27979    0.59501    0.69136    1.000
    N1622    N        0.28246    0.55669    0.71577    1.000
    Si1623   Si       0.24381    0.64897    0.72936    1.000
    Si1624   Si       0.26513    0.61155    0.84573    1.000
    N1625    N        0.24091    0.57110    0.77206    1.000
    N1626    N        0.24703    0.57304    0.83258    1.000
    Si1627   Si       0.26875    0.54518    0.79861    1.000
    N1628    N        0.25884    0.51299    0.77193    1.000
    Si1629   Si       0.25865    0.54043    0.86062    1.000
    N1630    N        0.28512    0.51914    0.83085    1.000
    N1631    N        0.23451    0.64102    0.83934    1.000
    Si1632   Si       0.24981    0.68135    0.84938    1.000
    N1633    N        0.24030    0.67684    0.76592    1.000
    Si1634   Si       0.28101    0.69423    0.77084    1.000
    N1635    N        0.27756    0.74163    0.86619    1.000
    N1636    N        0.28057    0.73674    0.79074    1.000
    Si1637   Si       0.26979    0.54517    0.98240    1.000
    Si1638   Si       0.24997    0.59924    0.92515    1.000
    N1639    N        0.27165    0.60954    0.88878    1.000
    N1640    N        0.27465    0.57490    0.94970    1.000
    N1641    N        0.27986    0.51206    0.95301    1.000
    N1642    N        0.22536    0.51658    0.87504    1.000
    N1643    N        0.26181    0.64217    0.94155    1.000
    N1644    N        0.26337    0.73468    0.94236    1.000
    Si1645   Si       0.27632    0.65903    0.97928    1.000
    Si1646   Si       0.27796    0.72043    0.90345    1.000
    N1647    N        0.26798    0.68124    0.88945    1.000
    N1648    N        0.25824    0.86858    0.02429    1.000
    N1649    N        0.24166    0.78730    0.05135    1.000
    N1650    N        0.27848    0.83779    0.08458    1.000
    Si1651   Si       0.27907    0.87447    0.06158    1.000
    Si1652   Si       0.28171    0.80478    0.05694    1.000
    N1653    N        0.26618    0.90477    0.08832    1.000
    N1654    N        0.26904    0.96883    0.06817    1.000
    Si1655   Si       0.24149    0.90789    0.01620    1.000
    Si1656   Si       0.23331    0.94582    0.07849    1.000
    N1657    N        0.26269    0.98798    0.99810    1.000
    Si1658   Si       0.27296    0.84413    0.12729    1.000
    N1659    N        0.28067    0.84430    0.21332    1.000
    Si1660   Si       0.23848    0.83725    0.21892    1.000
    N1661    N        0.24180    0.81819    0.14106    1.000
    Si1662   Si       0.24447    0.77371    0.14503    1.000
    N1663    N        0.26944    0.88134    0.15158    1.000
    N1664    N        0.23014    0.79682    0.23111    1.000
    N1665    N        0.22781    0.93986    0.12490    1.000
    Si1666   Si       0.28666    0.88266    0.19141    1.000
    Si1667   Si       0.27533    0.95820    0.21291    1.000
    N1668    N        0.26918    0.91634    0.21560    1.000
    Si1669   Si       0.27973    0.98665    0.15054    1.000
    Si1670   Si       0.26597    0.91704    0.12766    1.000
    N1671    N        0.25785    0.98764    0.18866    1.000
    N1672    N        0.25396    0.00823    0.12203    1.000
    N1673    N        0.25594    0.79689    0.30224    1.000
    Si1674   Si       0.24486    0.81976    0.33754    1.000
    N1675    N        0.27957    0.83854    0.35865    1.000
    Si1676   Si       0.22721    0.77953    0.27179    1.000
    N1677    N        0.26938    0.89676    0.28958    1.000
    N1678    N        0.24670    0.98120    0.32180    1.000
    Si1679   Si       0.23558    0.97094    0.28190    1.000
    N1680    N        0.27190    0.97289    0.25430    1.000
    Si1681   Si       0.24850    0.90343    0.25099    1.000
    Si1682   Si       0.23351    0.95959    0.35726    1.000
    N1683    N        0.23532    0.79220    0.36861    1.000
    N1684    N        0.25355    0.76819    0.45878    1.000
    Si1685   Si       0.26840    0.84454    0.39969    1.000
    Si1686   Si       0.27192    0.85313    0.47361    1.000
    N1687    N        0.23294    0.86822    0.46445    1.000
    N1688    N        0.22584    0.84917    0.40056    1.000
    Si1689   Si       0.26200    0.96123    0.42604    1.000
    N1690    N        0.26799    0.95229    0.38237    1.000
    N1691    N        0.28300    0.99929    0.43085    1.000
    Si1692   Si       0.25953    0.79688    0.53739    1.000
    N1693    N        0.25122    0.81058    0.57818    1.000
    N1694    N        0.26722    0.82170    0.50410    1.000
    N1695    N        0.22712    0.77056    0.52588    1.000
    Si1696   Si       0.24912    0.88258    0.60917    1.000
    N1697    N        0.26739    0.89040    0.57244    1.000
    N1698    N        0.24710    0.97231    0.56324    1.000
    N1699    N        0.23892    0.91687    0.51125    1.000
    Si1700   Si       0.22916    0.99420    0.60221    1.000
    Si1701   Si       0.27734    0.98433    0.53568    1.000
    N1702    N        0.25591    0.99833    0.50092    1.000
    Si1703   Si       0.27754    0.92271    0.49396    1.000
    N1704    N        0.28127    0.83000    0.69729    1.000
    N1705    N        0.23336    0.81037    0.64703    1.000
    Si1706   Si       0.24884    0.77134    0.65259    1.000
    Si1707   Si       0.25683    0.80061    0.71494    1.000
    Si1708   Si       0.25377    0.84407    0.66613    1.000
    Si1709   Si       0.23272    0.86338    0.72884    1.000
    N1710    N        0.27647    0.86111    0.63473    1.000
    N1711    N        0.26359    0.76334    0.69337    1.000
    N1712    N        0.24063    0.88071    0.68923    1.000
    N1713    N        0.22612    0.95565    0.68646    1.000
    Si1714   Si       0.26755    0.96761    0.70058    1.000
    N1715    N        0.26649    0.98783    0.62565    1.000
    Si1716   Si       0.27440    0.94543    0.63500    1.000
    N1717    N        0.26557    0.94691    0.73882    1.000
    N1718    N        0.24095    0.91881    0.63237    1.000
    Si1719   Si       0.26479    0.77754    0.79140    1.000
    N1720    N        0.26456    0.87162    0.75780    1.000
    Si1721   Si       0.25464    0.87110    0.80106    1.000
    Si1722   Si       0.26370    0.78316    0.86407    1.000
    N1723    N        0.27635    0.79335    0.75350    1.000
    N1724    N        0.27900    0.79967    0.82558    1.000
    N1725    N        0.22576    0.84531    0.82342    1.000
    N1726    N        0.25933    0.96452    0.81123    1.000
    Si1727   Si       0.24191    0.96333    0.77089    1.000
    Si1728   Si       0.23484    0.93951    0.83452    1.000
    N1729    N        0.24642    0.90675    0.86421    1.000
    N1730    N        0.23001    0.90745    0.80295    1.000
    Si1731   Si       0.27910    0.84605    0.99339    1.000
    N1732    N        0.25314    0.83514    0.95902    1.000
    Si1733   Si       0.26121    0.83973    0.91655    1.000
    N1734    N        0.22078    0.84884    0.89729    1.000
    Si1735   Si       0.23890    0.92880    0.90379    1.000
    N1736    N        0.23271    0.96885    0.88641    1.000
    Si1737   Si       0.26798    0.95026    0.97323    1.000
    N1738    N        0.23019    0.92496    0.97870    1.000
    N1739    N        0.27152    0.93693    0.92956    1.000
    N1740    N        0.31424    0.02568    0.08532    1.000
    N1741    N        0.33716    0.12547    0.05675    1.000
    N1742    N        0.31886    0.10861    0.99556    1.000
    Si1743   Si       0.29451    0.13173    0.05719    1.000
    N1744    N        0.28670    0.21377    0.09043    1.000
    Si1745   Si       0.33928    0.20332    0.00418    1.000
    Si1746   Si       0.32917    0.21300    0.08767    1.000
    N1747    N        0.28101    0.13929    0.09710    1.000
    Si1748   Si       0.32793    0.04215    0.12466    1.000
    N1749    N        0.32197    0.08635    0.12442    1.000
    N1750    N        0.29681    0.09458    0.20578    1.000
    Si1751   Si       0.29318    0.06488    0.23678    1.000
    Si1752   Si       0.33093    0.11809    0.19338    1.000
    N1753    N        0.31789    0.03084    0.23879    1.000
    N1754    N        0.31640    0.01090    0.15362    1.000
    Si1755   Si       0.28297    0.10651    0.12518    1.000
    N1756    N        0.34195    0.14408    0.22703    1.000
    Si1757   Si       0.32716    0.25502    0.14677    1.000
    Si1758   Si       0.30741    0.21032    0.20566    1.000
    N1759    N        0.28852    0.24930    0.21232    1.000
    N1760    N        0.32331    0.21538    0.16501    1.000
    N1761    N        0.34298    0.21315    0.23174    1.000
    N1762    N        0.32567    0.14751    0.16171    1.000
    N1763    N        0.30904    0.08861    0.34113    1.000
    N1764    N        0.31071    0.08991    0.26932    1.000
    Si1765   Si       0.31772    0.06629    0.30476    1.000
    N1766    N        0.29617    0.02832    0.30140    1.000
    Si1767   Si       0.28915    0.12678    0.34589    1.000
    N1768    N        0.30447    0.16202    0.32414    1.000
    Si1769   Si       0.31965    0.23949    0.32547    1.000
    N1770    N        0.32058    0.22376    0.36800    1.000
    N1771    N        0.28820    0.22739    0.29638    1.000
    Si1772   Si       0.33569    0.07514    0.37189    1.000
    N1773    N        0.31078    0.05829    0.40221    1.000
    Si1774   Si       0.32027    0.06604    0.44411    1.000
    N1775    N        0.32194    0.10930    0.44602    1.000
    Si1776   Si       0.30346    0.12473    0.48208    1.000
    Si1777   Si       0.29137    0.02085    0.39419    1.000
    N1778    N        0.28876    0.05354    0.47239    1.000
    Si1779   Si       0.28734    0.01029    0.47258    1.000
    N1780    N        0.31026    0.16823    0.48184    1.000
    Si1781   Si       0.29729    0.24257    0.40273    1.000
    Si1782   Si       0.32565    0.13484    0.41079    1.000
    N1783    N        0.28913    0.13651    0.39012    1.000
    Si1784   Si       0.33156    0.19458    0.45387    1.000
    N1785    N        0.30382    0.22638    0.44304    1.000
    Si1786   Si       0.28519    0.23954    0.47999    1.000
    N1787    N        0.30721    0.09562    0.58630    1.000
    N1788    N        0.32099    0.10752    0.51711    1.000
    Si1789   Si       0.28880    0.10556    0.54830    1.000
    Si1790   Si       0.34010    0.12098    0.59556    1.000
    Si1791   Si       0.34080    0.19334    0.58480    1.000
    Si1792   Si       0.29303    0.18115    0.52048    1.000
    N1793    N        0.32106    0.16036    0.60354    1.000
    N1794    N        0.32564    0.19914    0.54540    1.000
    N1795    N        0.32040    0.25088    0.50316    1.000
    N1796    N        0.33502    0.04577    0.65050    1.000
    N1797    N        0.29789    0.11627    0.64810    1.000
    Si1798   Si       0.31570    0.03339    0.68867    1.000
    N1799    N        0.30427    0.07542    0.69979    1.000
    Si1800   Si       0.33363    0.09200    0.65729    1.000
    N1801    N        0.32203    0.12266    0.74097    1.000
    Si1802   Si       0.31920    0.19605    0.70473    1.000
    N1803    N        0.28821    0.18283    0.73149    1.000
    Si1804   Si       0.29286    0.15954    0.63786    1.000
    N1805    N        0.30258    0.19470    0.66305    1.000
    N1806    N        0.32040    0.23844    0.71373    1.000
    N1807    N        0.30488    0.05130    0.83031    1.000
    Si1808   Si       0.33244    0.02592    0.80292    1.000
    Si1809   Si       0.34156    0.06740    0.85168    1.000
    N1810    N        0.34043    0.11217    0.84562    1.000
    N1811    N        0.34042    0.05816    0.76774    1.000
    Si1812   Si       0.31064    0.07986    0.74306    1.000
    Si1813   Si       0.28612    0.25775    0.84538    1.000
    Si1814   Si       0.30504    0.13711    0.83792    1.000
    N1815    N        0.30185    0.21671    0.85115    1.000
    N1816    N        0.31261    0.15965    0.80060    1.000
    N1817    N        0.30070    0.22876    0.78392    1.000
    Si1818   Si       0.32119    0.20170    0.81071    1.000
    Si1819   Si       0.29472    0.14980    0.75997    1.000
    Si1820   Si       0.30680    0.25552    0.75070    1.000
    Si1821   Si       0.29374    0.01679    0.96575    1.000
    Si1822   Si       0.32722    0.07297    0.92690    1.000
    N1823    N        0.33307    0.03542    0.95196    1.000
    N1824    N        0.28766    0.09054    0.91894    1.000
    N1825    N        0.30773    0.15487    0.94027    1.000
    Si1826   Si       0.29859    0.19660    0.94779    1.000
    Si1827   Si       0.32194    0.19461    0.88181    1.000
    N1828    N        0.29751    0.19691    0.99135    1.000
    Si1829   Si       0.33638    0.13655    0.96748    1.000
    N1830    N        0.33042    0.21220    0.92056    1.000
    N1831    N        0.29207    0.15927    0.87412    1.000
    Si1832   Si       0.31680    0.33986    0.01574    1.000
    N1833    N        0.33215    0.31959    0.09904    1.000
    N1834    N        0.29402    0.34911    0.05192    1.000
    Si1835   Si       0.29069    0.31964    0.08471    1.000
    N1836    N        0.32294    0.39040    0.09812    1.000
    Si1837   Si       0.30378    0.39057    0.06092    1.000
    N1838    N        0.32608    0.41074    0.02838    1.000
    N1839    N        0.30198    0.47063    0.03782    1.000
    Si1840   Si       0.29816    0.43797    0.00863    1.000
    Si1841   Si       0.31575    0.47025    0.11886    1.000
    Si1842   Si       0.34067    0.48704    0.05151    1.000
    Si1843   Si       0.31276    0.28271    0.20751    1.000
    N1844    N        0.33945    0.37234    0.15505    1.000
    N1845    N        0.33613    0.28686    0.24430    1.000
    N1846    N        0.34194    0.28245    0.17600    1.000
    N1847    N        0.28685    0.27190    0.13976    1.000
    Si1848   Si       0.31216    0.39987    0.13831    1.000
    N1849    N        0.32378    0.43974    0.14847    1.000
    N1850    N        0.29125    0.44717    0.20755    1.000
    Si1851   Si       0.32841    0.45138    0.18866    1.000
    Si1852   Si       0.31283    0.29805    0.28194    1.000
    N1853    N        0.32681    0.33925    0.29317    1.000
    N1854    N        0.29959    0.33907    0.35732    1.000
    Si1855   Si       0.32522    0.36173    0.32809    1.000
    Si1856   Si       0.32302    0.36722    0.26052    1.000
    Si1857   Si       0.31583    0.29999    0.36135    1.000
    N1858    N        0.29025    0.27158    0.34008    1.000
    N1859    N        0.34110    0.27317    0.30414    1.000
    Si1860   Si       0.31252    0.43182    0.29600    1.000
    N1861    N        0.33005    0.45776    0.32580    1.000
    Si1862   Si       0.31985    0.47361    0.36323    1.000
    N1863    N        0.29828    0.39426    0.31345    1.000
    N1864    N        0.33737    0.40821    0.26866    1.000
    N1865    N        0.28389    0.45890    0.27881    1.000
    Si1866   Si       0.33052    0.30746    0.42876    1.000
    N1867    N        0.30825    0.30713    0.46616    1.000
    N1868    N        0.30754    0.28494    0.40087    1.000
    N1869    N        0.33290    0.36696    0.48725    1.000
    Si1870   Si       0.33305    0.37693    0.44498    1.000
    N1871    N        0.30835    0.45886    0.46095    1.000
    Si1872   Si       0.28985    0.43647    0.42714    1.000
    N1873    N        0.29520    0.39234    0.42800    1.000
    N1874    N        0.31878    0.45169    0.40031    1.000
    Si1875   Si       0.28666    0.48900    0.48153    1.000
    N1876    N        0.31172    0.31670    0.53357    1.000
    Si1877   Si       0.32145    0.35901    0.52901    1.000
    Si1878   Si       0.32147    0.27071    0.61095    1.000
    N1879    N        0.33220    0.31058    0.59500    1.000
    Si1880   Si       0.29396    0.31276    0.57193    1.000
    Si1881   Si       0.32938    0.29353    0.50149    1.000
    N1882    N        0.28728    0.37540    0.54823    1.000
    N1883    N        0.28773    0.27059    0.58433    1.000
    N1884    N        0.31023    0.43799    0.55540    1.000
    Si1885   Si       0.29585    0.47974    0.55452    1.000
    N1886    N        0.31293    0.40281    0.61095    1.000
    Si1887   Si       0.28754    0.40860    0.57625    1.000
    N1888    N        0.33645    0.49281    0.55220    1.000
    N1889    N        0.30494    0.27015    0.65277    1.000
    N1890    N        0.29481    0.32846    0.70451    1.000
    Si1891   Si       0.30161    0.37681    0.64417    1.000
    N1892    N        0.33696    0.36078    0.66306    1.000
    Si1893   Si       0.33641    0.33718    0.70137    1.000
    Si1894   Si       0.33696    0.26315    0.68130    1.000
    N1895    N        0.29017    0.44667    0.72248    1.000
    Si1896   Si       0.28697    0.48610    0.63251    1.000
    N1897    N        0.32744    0.46723    0.63464    1.000
    Si1898   Si       0.34574    0.43027    0.62011    1.000
    N1899    N        0.31423    0.28315    0.82512    1.000
    Si1900   Si       0.30533    0.32382    0.81091    1.000
    N1901    N        0.28454    0.33897    0.77462    1.000
    Si1902   Si       0.31898    0.43857    0.75370    1.000
    N1903    N        0.29701    0.46162    0.78269    1.000
    N1904    N        0.32065    0.39784    0.76299    1.000
    N1905    N        0.32399    0.46509    0.84888    1.000
    Si1906   Si       0.28989    0.47699    0.82294    1.000
    N1907    N        0.30736    0.39612    0.87157    1.000
    N1908    N        0.34229    0.28160    0.92981    1.000
    Si1909   Si       0.32132    0.27279    0.96816    1.000
    Si1910   Si       0.32491    0.36400    0.89548    1.000
    N1911    N        0.29126    0.34363    0.91311    1.000
    N1912    N        0.28733    0.35821    0.98477    1.000
    N1913    N        0.32546    0.30185    0.99727    1.000
    Si1914   Si       0.31497    0.43803    0.88306    1.000
    N1915    N        0.31080    0.44971    0.96990    1.000
    Si1916   Si       0.30471    0.55041    0.04917    1.000
    Si1917   Si       0.31626    0.60063    0.10037    1.000
    N1918    N        0.31211    0.59259    0.05768    1.000
    Si1919   Si       0.32080    0.61337    0.01957    1.000
    N1920    N        0.30604    0.54971    0.00704    1.000
    Si1921   Si       0.33427    0.67737    0.09420    1.000
    N1922    N        0.32424    0.70137    0.05845    1.000
    Si1923   Si       0.29707    0.73369    0.05843    1.000
    N1924    N        0.31042    0.64340    0.11170    1.000
    Si1925   Si       0.33764    0.68734    0.01780    1.000
    N1926    N        0.28501    0.74761    0.01512    1.000
    N1927    N        0.28933    0.57214    0.12175    1.000
    N1928    N        0.29224    0.57001    0.19482    1.000
    Si1929   Si       0.33381    0.56710    0.20718    1.000
    N1930    N        0.31456    0.51188    0.13132    1.000
    N1931    N        0.30092    0.72063    0.20751    1.000
    Si1932   Si       0.29148    0.72394    0.12734    1.000
    Si1933   Si       0.29223    0.65555    0.14885    1.000
    N1934    N        0.33130    0.70722    0.12653    1.000
    Si1935   Si       0.32242    0.75445    0.22460    1.000
    N1936    N        0.32121    0.65892    0.18106    1.000
    Si1937   Si       0.33518    0.69293    0.20890    1.000
    Si1938   Si       0.29927    0.59178    0.34062    1.000
    N1939    N        0.31498    0.51921    0.30333    1.000
    Si1940   Si       0.30982    0.53808    0.26562    1.000
    N1941    N        0.28867    0.57625    0.26166    1.000
    N1942    N        0.32392    0.62161    0.36643    1.000
    N1943    N        0.33894    0.57243    0.33231    1.000
    N1944    N        0.30186    0.65058    0.25627    1.000
    N1945    N        0.29257    0.73832    0.31155    1.000
    N1946    N        0.32997    0.68143    0.31820    1.000
    Si1947   Si       0.33183    0.72486    0.32635    1.000
    Si1948   Si       0.33488    0.66924    0.27568    1.000
    Si1949   Si       0.30721    0.65221    0.33938    1.000
    N1950    N        0.34218    0.70653    0.25351    1.000
    N1951    N        0.30167    0.52799    0.47241    1.000
    N1952    N        0.29089    0.58290    0.42515    1.000
    Si1953   Si       0.32379    0.60470    0.40788    1.000
    Si1954   Si       0.28773    0.56730    0.46466    1.000
    N1955    N        0.31080    0.59164    0.49087    1.000
    Si1956   Si       0.32224    0.67106    0.45496    1.000
    N1957    N        0.33494    0.63264    0.43977    1.000
    N1958    N        0.28655    0.66752    0.47923    1.000
    N1959    N        0.30736    0.69113    0.41746    1.000
    Si1960   Si       0.31264    0.73093    0.40011    1.000
    Si1961   Si       0.31689    0.57527    0.52985    1.000
    Si1962   Si       0.30837    0.60696    0.59781    1.000
    N1963    N        0.32259    0.60770    0.55710    1.000
    N1964    N        0.29785    0.56720    0.60919    1.000
    N1965    N        0.30450    0.67597    0.55066    1.000
    N1966    N        0.33417    0.72191    0.59820    1.000
    Si1967   Si       0.31085    0.75359    0.51848    1.000
    Si1968   Si       0.33801    0.69963    0.56071    1.000
    Si1969   Si       0.32088    0.55239    0.64480    1.000
    N1970    N        0.31668    0.58917    0.66910    1.000
    N1971    N        0.29648    0.51999    0.65832    1.000
    Si1972   Si       0.31968    0.55525    0.74026    1.000
    Si1973   Si       0.28939    0.51621    0.70108    1.000
    N1974    N        0.32708    0.51194    0.72457    1.000
    N1975    N        0.33568    0.65404    0.68848    1.000
    N1976    N        0.31418    0.71725    0.66303    1.000
    Si1977   Si       0.31186    0.66163    0.72282    1.000
    Si1978   Si       0.29675    0.73691    0.70092    1.000
    N1979    N        0.29285    0.70047    0.72618    1.000
    Si1980   Si       0.29798    0.72649    0.62238    1.000
    N1981    N        0.30715    0.55877    0.78007    1.000
    Si1982   Si       0.32850    0.58340    0.80841    1.000
    Si1983   Si       0.32020    0.52405    0.85871    1.000
    N1984    N        0.30181    0.61481    0.82435    1.000
    Si1985   Si       0.29508    0.72594    0.83136    1.000
    N1986    N        0.31077    0.65968    0.76762    1.000
    Si1987   Si       0.31661    0.65365    0.81049    1.000
    N1988    N        0.28681    0.68366    0.82366    1.000
    Si1989   Si       0.29791    0.54460    0.93050    1.000
    N1990    N        0.29250    0.53967    0.88814    1.000
    N1991    N        0.31770    0.71192    0.92522    1.000
    N1992    N        0.32918    0.64261    0.91104    1.000
    Si1993   Si       0.30007    0.72727    0.96368    1.000
    Si1994   Si       0.28705    0.64626    0.90538    1.000
    N1995    N        0.30537    0.69085    0.98634    1.000
    N1996    N        0.32631    0.76229    0.96621    1.000
    N1997    N        0.31310    0.77474    0.06708    1.000
    Si1998   Si       0.31637    0.77769    0.00467    1.000
    N1999    N        0.29648    0.81377    0.01634    1.000
    N2000    N        0.32001    0.88454    0.04911    1.000
    Si2001   Si       0.31770    0.89999    0.00919    1.000
    N2002    N        0.32435    0.98707    0.02766    1.000
    Si2003   Si       0.28559    0.96706    0.02988    1.000
    N2004    N        0.28301    0.92916    0.00997    1.000
    N2005    N        0.31269    0.83093    0.13908    1.000
    N2006    N        0.32037    0.78782    0.19449    1.000
    Si2007   Si       0.31869    0.78936    0.15239    1.000
    Si2008   Si       0.30919    0.81604    0.22636    1.000
    Si2009   Si       0.34040    0.86494    0.14972    1.000
    N2010    N        0.28613    0.76535    0.13776    1.000
    N2011    N        0.33136    0.88427    0.18878    1.000
    Si2012   Si       0.34139    0.94348    0.23947    1.000
    N2013    N        0.31924    0.96058    0.20588    1.000
    N2014    N        0.29627    0.94836    0.13712    1.000
    Si2015   Si       0.33641    0.93868    0.12389    1.000
    N2016    N        0.34268    0.89419    0.11976    1.000
    N2017    N        0.32590    0.80141    0.31926    1.000
    Si2018   Si       0.32048    0.83748    0.34427    1.000
    Si2019   Si       0.29532    0.77943    0.29626    1.000
    N2020    N        0.30166    0.78253    0.25328    1.000
    N2021    N        0.33809    0.87048    0.31966    1.000
    Si2022   Si       0.31252    0.89929    0.29681    1.000
    N2023    N        0.31810    0.93346    0.32951    1.000
    Si2024   Si       0.30568    0.99922    0.26773    1.000
    N2025    N        0.33814    0.96992    0.27387    1.000
    N2026    N        0.33257    0.90504    0.25762    1.000
    Si2027   Si       0.32589    0.84722    0.42272    1.000
    N2028    N        0.32172    0.77810    0.48454    1.000
    Si2029   Si       0.29165    0.78627    0.45328    1.000
    N2030    N        0.29444    0.87765    0.40922    1.000
    N2031    N        0.31699    0.76852    0.42333    1.000
    N2032    N        0.28832    0.82659    0.44012    1.000
    N2033    N        0.34255    0.83209    0.38320    1.000
    N2034    N        0.29905    0.88477    0.48750    1.000
    N2035    N        0.28460    0.93514    0.45273    1.000
    Si2036   Si       0.30833    0.95046    0.36893    1.000
    N2037    N        0.33305    0.93136    0.40037    1.000
    N2038    N        0.32398    0.99621    0.48981    1.000
    N2039    N        0.31686    0.99280    0.37126    1.000
    Si2040   Si       0.31197    0.90864    0.43357    1.000
    N2041    N        0.29838    0.77934    0.55036    1.000
    N2042    N        0.32545    0.82056    0.60315    1.000
    Si2043   Si       0.29157    0.79445    0.59175    1.000
    N2044    N        0.33490    0.89333    0.61331    1.000
    N2045    N        0.29949    0.94402    0.59884    1.000
    N2046    N        0.29676    0.94637    0.52594    1.000
    Si2047   Si       0.29876    0.91913    0.56186    1.000
    Si2048   Si       0.30081    0.99004    0.60046    1.000
    N2049    N        0.33330    0.89767    0.54808    1.000
    Si2050   Si       0.33887    0.96242    0.51286    1.000
    Si2051   Si       0.33949    0.89076    0.50621    1.000
    N2052    N        0.30364    0.00925    0.56202    1.000
    N2053    N        0.28128    0.76624    0.62354    1.000
    N2054    N        0.33424    0.83182    0.73974    1.000
    Si2055   Si       0.31682    0.85485    0.70465    1.000
    Si2056   Si       0.31899    0.85557    0.62859    1.000
    N2057    N        0.32634    0.75964    0.72333    1.000
    N2058    N        0.34131    0.85452    0.66841    1.000
    Si2059   Si       0.33181    0.93116    0.69548    1.000
    N2060    N        0.31276    0.89724    0.71682    1.000
    N2061    N        0.29421    0.94464    0.67392    1.000
    N2062    N        0.28227    0.00734    0.70606    1.000
    Si2063   Si       0.31856    0.82327    0.81795    1.000
    N2064    N        0.33459    0.79013    0.79013    1.000
    N2065    N        0.28909    0.86907    0.82795    1.000
    Si2066   Si       0.31923    0.79211    0.74885    1.000
    N2067    N        0.31532    0.92321    0.85198    1.000
    N2068    N        0.30382    0.92044    0.78543    1.000
    Si2069   Si       0.30288    0.96303    0.80040    1.000
    N2070    N        0.32692    0.98714    0.82641    1.000
    Si2071   Si       0.32503    0.89693    0.81497    1.000
    Si2072   Si       0.33662    0.96097    0.86043    1.000
    N2073    N        0.31065    0.99653    0.77004    1.000
    Si2074   Si       0.28778    0.89278    0.86587    1.000
    Si2075   Si       0.28608    0.91035    0.74853    1.000
    N2076    N        0.31169    0.87235    0.97813    1.000
    Si2077   Si       0.32547    0.81153    0.89393    1.000
    Si2078   Si       0.31874    0.87521    0.93551    1.000
    N2079    N        0.28777    0.87154    0.90484    1.000
    N2080    N        0.34174    0.83910    0.92088    1.000
    N2081    N        0.28289    0.80589    0.89731    1.000
    Si2082   Si       0.31415    0.94900    0.92610    1.000
    N2083    N        0.33159    0.97865    0.90151    1.000
    N2084    N        0.33947    0.91289    0.92305    1.000
    N2085    N        0.31214    0.97129    0.96327    1.000
    Si2086   Si       0.34438    0.96821    0.99326    1.000
    N2087    N        0.38894    0.11186    0.01438    1.000
    N2088    N        0.38753    0.11947    0.10461    1.000
    N2089    N        0.34977    0.05127    0.02305    1.000
    Si2090   Si       0.34892    0.09565    0.02662    1.000
    Si2091   Si       0.40139    0.02260    0.10738    1.000
    Si2092   Si       0.34300    0.01849    0.05225    1.000
    Si2093   Si       0.36665    0.14924    0.08092    1.000
    Si2094   Si       0.38110    0.23674    0.05149    1.000
    Si2095   Si       0.39557    0.15455    0.01382    1.000
    N2096    N        0.35307    0.18187    0.10872    1.000
    N2097    N        0.39987    0.16604    0.05559    1.000
    N2098    N        0.34594    0.21156    0.04731    1.000
    N2099    N        0.33983    0.25089    0.10617    1.000
    N2100    N        0.37050    0.01511    0.19962    1.000
    Si2101   Si       0.39815    0.09155    0.20642    1.000
    N2102    N        0.37371    0.04830    0.12975    1.000
    Si2103   Si       0.39289    0.03366    0.16910    1.000
    N2104    N        0.36911    0.08341    0.23742    1.000
    N2105    N        0.36778    0.09870    0.17579    1.000
    Si2106   Si       0.36060    0.04093    0.23591    1.000
    Si2107   Si       0.36599    0.09419    0.13200    1.000
    Si2108   Si       0.34863    0.18128    0.15239    1.000
    Si2109   Si       0.36820    0.17699    0.22150    1.000
    N2110    N        0.38228    0.18777    0.18061    1.000
    N2111    N        0.40111    0.25349    0.16313    1.000
    N2112    N        0.36213    0.06310    0.30538    1.000
    Si2113   Si       0.38067    0.02501    0.30232    1.000
    Si2114   Si       0.38413    0.10013    0.30804    1.000
    N2115    N        0.38775    0.01735    0.26049    1.000
    Si2116   Si       0.34329    0.11420    0.25729    1.000
    N2117    N        0.35777    0.13253    0.29417    1.000
    N2118    N        0.36754    0.17159    0.35221    1.000
    N2119    N        0.35787    0.21185    0.30196    1.000
    Si2120   Si       0.34962    0.24358    0.26185    1.000
    N2121    N        0.39185    0.25304    0.26213    1.000
    Si2122   Si       0.39625    0.23187    0.30050    1.000
    Si2123   Si       0.34712    0.17046    0.31499    1.000
    Si2124   Si       0.38591    0.13792    0.37023    1.000
    Si2125   Si       0.35973    0.00506    0.36930    1.000
    N2126    N        0.36867    0.04824    0.37333    1.000
    N2127    N        0.39203    0.09558    0.48983    1.000
    N2128    N        0.35295    0.11230    0.38315    1.000
    N2129    N        0.35807    0.04669    0.45447    1.000
    Si2130   Si       0.36204    0.01859    0.48912    1.000
    Si2131   Si       0.39671    0.07023    0.45260    1.000
    Si2132   Si       0.35160    0.19841    0.38312    1.000
    N2133    N        0.38474    0.22300    0.39969    1.000
    N2134    N        0.36702    0.20713    0.47631    1.000
    N2135    N        0.34082    0.17423    0.41724    1.000
    N2136    N        0.36908    0.11134    0.56299    1.000
    N2137    N        0.36194    0.03989    0.58985    1.000
    Si2138   Si       0.38685    0.07773    0.59158    1.000
    N2139    N        0.35647    0.04751    0.52218    1.000
    Si2140   Si       0.36153    0.09098    0.52364    1.000
    Si2141   Si       0.34535    0.02114    0.55489    1.000
    N2142    N        0.38394    0.17836    0.57953    1.000
    N2143    N        0.38352    0.23698    0.54303    1.000
    Si2144   Si       0.35006    0.22250    0.51654    1.000
    N2145    N        0.34362    0.23095    0.60583    1.000
    N2146    N        0.36451    0.10038    0.62534    1.000
    Si2147   Si       0.36146    0.01980    0.62890    1.000
    N2148    N        0.36193    0.10807    0.68486    1.000
    Si2149   Si       0.39249    0.02145    0.69473    1.000
    N2150    N        0.35129    0.01680    0.70725    1.000
    Si2151   Si       0.39704    0.09108    0.66014    1.000
    N2152    N        0.39617    0.11853    0.73900    1.000
    N2153    N        0.39662    0.01026    0.65313    1.000
    Si2154   Si       0.35888    0.13286    0.71759    1.000
    N2155    N        0.38217    0.23560    0.74272    1.000
    Si2156   Si       0.38604    0.20969    0.70705    1.000
    N2157    N        0.37119    0.23259    0.67319    1.000
    N2158    N        0.35717    0.17598    0.70816    1.000
    Si2159   Si       0.37727    0.24303    0.63134    1.000
    Si2160   Si       0.38269    0.05111    0.78163    1.000
    N2161    N        0.36634    0.04649    0.82370    1.000
    N2162    N        0.37756    0.00773    0.77269    1.000
    Si2163   Si       0.39913    0.22038    0.77972    1.000
    Si2164   Si       0.37318    0.14163    0.85074    1.000
    N2165    N        0.36293    0.22386    0.80838    1.000
    Si2166   Si       0.38403    0.21383    0.84897    1.000
    N2167    N        0.35575    0.18100    0.85681    1.000
    Si2168   Si       0.35002    0.01540    0.91428    1.000
    N2169    N        0.35383    0.10683    0.93783    1.000
    Si2170   Si       0.36431    0.03557    0.98436    1.000
    Si2171   Si       0.39234    0.10720    0.92039    1.000
    N2172    N        0.39786    0.05713    0.96953    1.000
    N2173    N        0.34177    0.05211    0.89235    1.000
    N2174    N        0.39659    0.23612    0.94168    1.000
    Si2175   Si       0.38710    0.25229    0.98217    1.000
    Si2176   Si       0.35961    0.24442    0.91689    1.000
    N2177    N        0.39600    0.13481    0.88675    1.000
    N2178    N        0.37739    0.24643    0.87636    1.000
    N2179    N        0.34491    0.24041    0.98387    1.000
    N2180    N        0.36045    0.16644    0.99085    1.000
    N2181    N        0.35850    0.34617    0.02782    1.000
    N2182    N        0.37091    0.27952    0.04975    1.000
    Si2183   Si       0.38464    0.30974    0.02216    1.000
    Si2184   Si       0.35722    0.28722    0.08898    1.000
    N2185    N        0.38453    0.35785    0.09621    1.000
    Si2186   Si       0.38988    0.36368    0.05273    1.000
    N2187    N        0.39507    0.29039    0.10895    1.000
    Si2188   Si       0.34604    0.35640    0.11518    1.000
    N2189    N        0.34915    0.47187    0.09075    1.000
    Si2190   Si       0.39044    0.48827    0.09702    1.000
    Si2191   Si       0.36710    0.42602    0.01548    1.000
    N2192    N        0.36849    0.47095    0.02291    1.000
    N2193    N        0.39382    0.40708    0.04426    1.000
    Si2194   Si       0.38385    0.29159    0.17541    1.000
    N2195    N        0.34953    0.35106    0.22824    1.000
    Si2196   Si       0.36029    0.37728    0.19368    1.000
    N2197    N        0.40058    0.32821    0.16059    1.000
    Si2198   Si       0.36491    0.43158    0.24462    1.000
    N2199    N        0.34964    0.41912    0.20531    1.000
    N2200    N        0.39041    0.50486    0.13861    1.000
    Si2201   Si       0.36566    0.50248    0.22644    1.000
    N2202    N        0.34858    0.48885    0.18910    1.000
    Si2203   Si       0.37661    0.29514    0.31704    1.000
    N2204    N        0.35773    0.31068    0.35503    1.000
    N2205    N        0.39012    0.32183    0.28339    1.000
    N2206    N        0.36215    0.37693    0.34570    1.000
    Si2207   Si       0.37110    0.31617    0.24473    1.000
    N2208    N        0.39242    0.44125    0.30487    1.000
    Si2209   Si       0.36391    0.47342    0.30090    1.000
    N2210    N        0.35730    0.47345    0.25830    1.000
    Si2211   Si       0.39279    0.40559    0.33071    1.000
    N2212    N        0.34675    0.50731    0.37061    1.000
    Si2213   Si       0.36795    0.34733    0.37859    1.000
    N2214    N        0.36846    0.28911    0.43661    1.000
    Si2215   Si       0.39321    0.29736    0.46984    1.000
    N2216    N        0.34369    0.34745    0.41586    1.000
    N2217    N        0.38336    0.46824    0.42821    1.000
    Si2218   Si       0.38372    0.49979    0.39582    1.000
    Si2219   Si       0.34546    0.45121    0.43983    1.000
    N2220    N        0.35778    0.41165    0.45240    1.000
    Si2221   Si       0.37320    0.31597    0.60446    1.000
    N2222    N        0.38327    0.35848    0.60733    1.000
    N2223    N        0.37374    0.29502    0.50756    1.000
    Si2224   Si       0.39633    0.27801    0.53973    1.000
    N2225    N        0.35960    0.37624    0.54318    1.000
    N2226    N        0.39791    0.28958    0.58201    1.000
    Si2227   Si       0.38664    0.38780    0.57415    1.000
    N2228    N        0.37231    0.42867    0.58604    1.000
    N2229    N        0.36807    0.43593    0.51397    1.000
    Si2230   Si       0.35264    0.45040    0.55091    1.000
    Si2231   Si       0.39704    0.46737    0.50781    1.000
    Si2232   Si       0.36598    0.39548    0.49784    1.000
    N2233    N        0.39603    0.47701    0.55305    1.000
    Si2234   Si       0.40349    0.45825    0.59426    1.000
    Si2235   Si       0.40194    0.36526    0.71299    1.000
    Si2236   Si       0.39740    0.29936    0.67610    1.000
    Si2237   Si       0.37536    0.36982    0.64811    1.000
    N2238    N        0.35375    0.29730    0.70021    1.000
    Si2239   Si       0.37201    0.27817    0.73490    1.000
    N2240    N        0.36993    0.28724    0.63877    1.000
    N2241    N        0.36203    0.35552    0.73345    1.000
    N2242    N        0.40032    0.34526    0.67516    1.000
    Si2243   Si       0.36721    0.49158    0.72744    1.000
    N2244    N        0.37600    0.41511    0.65018    1.000
    Si2245   Si       0.39600    0.43728    0.68043    1.000
    N2246    N        0.37350    0.47473    0.68827    1.000
    Si2247   Si       0.35845    0.49428    0.65125    1.000
    N2248    N        0.38948    0.48699    0.62198    1.000
    N2249    N        0.39816    0.41005    0.71466    1.000
    Si2250   Si       0.37155    0.33104    0.83728    1.000
    N2251    N        0.38277    0.29304    0.81775    1.000
    Si2252   Si       0.35265    0.37017    0.77253    1.000
    Si2253   Si       0.35018    0.26663    0.80612    1.000
    N2254    N        0.34222    0.34600    0.80843    1.000
    N2255    N        0.33975    0.27843    0.76436    1.000
    N2256    N        0.38541    0.39533    0.78481    1.000
    N2257    N        0.38366    0.49538    0.82167    1.000
    Si2258   Si       0.37091    0.46647    0.85143    1.000
    Si2259   Si       0.39050    0.42634    0.75446    1.000
    N2260    N        0.38397    0.42330    0.84650    1.000
    N2261    N        0.35846    0.45326    0.74946    1.000
    N2262    N        0.34824    0.33156    0.87264    1.000
    N2263    N        0.35694    0.35922    0.92777    1.000
    Si2264   Si       0.36026    0.31804    0.91374    1.000
    N2265    N        0.39826    0.29426    0.98449    1.000
    N2266    N        0.40151    0.30407    0.91351    1.000
    Si2267   Si       0.38850    0.38201    0.94651    1.000
    N2268    N        0.35078    0.43438    0.90904    1.000
    N2269    N        0.37399    0.41354    0.97354    1.000
    Si2270   Si       0.39127    0.42875    0.89075    1.000
    N2271    N        0.37241    0.48574    0.95326    1.000
    Si2272   Si       0.38782    0.49861    0.99349    1.000
    Si2273   Si       0.35286    0.44566    0.95228    1.000
    Si2274   Si       0.37134    0.55733    0.07467    1.000
    N2275    N        0.37767    0.58862    0.04536    1.000
    N2276    N        0.35890    0.58504    0.10779    1.000
    N2277    N        0.34126    0.52906    0.06117    1.000
    Si2278   Si       0.38272    0.63295    0.05407    1.000
    Si2279   Si       0.39421    0.73438    0.03745    1.000
    N2280    N        0.37264    0.66048    0.08672    1.000
    N2281    N        0.37078    0.71301    0.00861    1.000
    N2282    N        0.34745    0.64674    0.02898    1.000
    N2283    N        0.38363    0.75776    0.07186    1.000
    Si2284   Si       0.35039    0.51751    0.15635    1.000
    Si2285   Si       0.37954    0.58572    0.14484    1.000
    N2286    N        0.35346    0.60275    0.21713    1.000
    N2287    N        0.35609    0.55876    0.17082    1.000
    N2288    N        0.38768    0.62531    0.16134    1.000
    Si2289   Si       0.38103    0.62665    0.24186    1.000
    N2290    N        0.34275    0.53810    0.23840    1.000
    N2291    N        0.40033    0.71878    0.12494    1.000
    Si2292   Si       0.36259    0.72926    0.14706    1.000
    N2293    N        0.37077    0.66315    0.21665    1.000
    N2294    N        0.36519    0.71804    0.18741    1.000
    Si2295   Si       0.35475    0.63378    0.18750    1.000
    Si2296   Si       0.39742    0.69735    0.21193    1.000
    Si2297   Si       0.36227    0.60370    0.35727    1.000
    Si2298   Si       0.34670    0.53058    0.33242    1.000
    N2299    N        0.37895    0.51125    0.31169    1.000
    N2300    N        0.39929    0.62340    0.34630    1.000
    N2301    N        0.34264    0.72971    0.36895    1.000
    N2302    N        0.36387    0.63571    0.27862    1.000
    N2303    N        0.36459    0.74428    0.30605    1.000
    Si2304   Si       0.37499    0.73325    0.26384    1.000
    N2305    N        0.36020    0.58378    0.39729    1.000
    N2306    N        0.37239    0.57739    0.46879    1.000
    Si2307   Si       0.34555    0.61313    0.47635    1.000
    Si2308   Si       0.38663    0.57194    0.42920    1.000
    Si2309   Si       0.38957    0.66632    0.48200    1.000
    N2310    N        0.35675    0.69191    0.46796    1.000
    Si2311   Si       0.38203    0.74670    0.37612    1.000
    Si2312   Si       0.36962    0.72295    0.49456    1.000
    N2313    N        0.35554    0.55457    0.53166    1.000
    N2314    N        0.39497    0.60971    0.56047    1.000
    Si2315   Si       0.37417    0.51562    0.54862    1.000
    N2316    N        0.39516    0.53922    0.57958    1.000
    Si2317   Si       0.38535    0.55129    0.49867    1.000
    N2318    N        0.38380    0.50826    0.50066    1.000
    Si2319   Si       0.35817    0.62988    0.54638    1.000
    N2320    N        0.36352    0.63794    0.50488    1.000
    Si2321   Si       0.37385    0.65250    0.60984    1.000
    N2322    N        0.36657    0.66829    0.56882    1.000
    Si2323   Si       0.37631    0.72194    0.61189    1.000
    N2324    N        0.39687    0.72599    0.57344    1.000
    N2325    N        0.34307    0.72653    0.52778    1.000
    Si2326   Si       0.39849    0.53013    0.62228    1.000
    N2327    N        0.38369    0.60323    0.67054    1.000
    Si2328   Si       0.37714    0.56408    0.68798    1.000
    N2329    N        0.36378    0.53837    0.65344    1.000
    N2330    N        0.35644    0.57295    0.72680    1.000
    Si2331   Si       0.34577    0.61872    0.66342    1.000
    N2332    N        0.34131    0.62753    0.62080    1.000
    Si2333   Si       0.39877    0.67147    0.72112    1.000
    N2334    N        0.37457    0.70648    0.70343    1.000
    N2335    N        0.38890    0.74518    0.64453    1.000
    N2336    N        0.38900    0.63399    0.73836    1.000
    N2337    N        0.37510    0.68693    0.63850    1.000
    Si2338   Si       0.36771    0.74401    0.72542    1.000
    Si2339   Si       0.34653    0.69060    0.67277    1.000
    N2340    N        0.36104    0.60380    0.79055    1.000
    Si2341   Si       0.37986    0.53151    0.84444    1.000
    N2342    N        0.38001    0.61384    0.85994    1.000
    Si2343   Si       0.38352    0.59438    0.75429    1.000
    Si2344   Si       0.38213    0.62942    0.81827    1.000
    N2345    N        0.39780    0.50954    0.75126    1.000
    N2346    N        0.34355    0.55241    0.83559    1.000
    N2347    N        0.35630    0.66311    0.82287    1.000
    Si2348   Si       0.36748    0.69909    0.84442    1.000
    N2349    N        0.37528    0.73946    0.76929    1.000
    N2350    N        0.34020    0.73068    0.83284    1.000
    N2351    N        0.38059    0.54303    0.99865    1.000
    N2352    N        0.38466    0.60163    0.93003    1.000
    Si2353   Si       0.37178    0.62301    0.96439    1.000
    Si2354   Si       0.36894    0.51715    0.92181    1.000
    Si2355   Si       0.36050    0.61736    0.89813    1.000
    N2356    N        0.34176    0.60067    0.98326    1.000
    N2357    N        0.35737    0.51465    0.87949    1.000
    Si2358   Si       0.34262    0.55726    0.98364    1.000
    N2359    N        0.34102    0.54338    0.94233    1.000
    N2360    N        0.38724    0.72762    0.94193    1.000
    N2361    N        0.37283    0.69172    0.88835    1.000
    Si2362   Si       0.34768    0.68265    0.92153    1.000
    Si2363   Si       0.39183    0.69883    0.97504    1.000
    N2364    N        0.37076    0.66632    0.95734    1.000
    N2365    N        0.37185    0.82433    0.08241    1.000
    N2366    N        0.35779    0.78532    0.02078    1.000
    Si2367   Si       0.35476    0.78828    0.06299    1.000
    Si2368   Si       0.39568    0.79579    0.00094    1.000
    N2369    N        0.38640    0.88742    0.05380    1.000
    Si2370   Si       0.38993    0.96235    0.07314    1.000
    Si2371   Si       0.38966    0.91436    0.01755    1.000
    N2372    N        0.35147    0.94317    0.08274    1.000
    Si2373   Si       0.34957    0.89861    0.07646    1.000
    N2374    N        0.35126    0.92477    0.99959    1.000
    N2375    N        0.37891    0.00520    0.07617    1.000
    N2376    N        0.34668    0.83587    0.23954    1.000
    Si2377   Si       0.37926    0.80755    0.12287    1.000
    N2378    N        0.35519    0.77255    0.13614    1.000
    N2379    N        0.37488    0.83899    0.15348    1.000
    Si2380   Si       0.35271    0.87730    0.22731    1.000
    N2381    N        0.36317    0.76659    0.23896    1.000
    Si2382   Si       0.37985    0.80635    0.24460    1.000
    N2383    N        0.36300    0.95749    0.15192    1.000
    N2384    N        0.39391    0.88148    0.20864    1.000
    N2385    N        0.38490    0.94818    0.22726    1.000
    Si2386   Si       0.39401    0.99030    0.22798    1.000
    Si2387   Si       0.34370    0.98500    0.18003    1.000
    Si2388   Si       0.36570    0.78653    0.31741    1.000
    N2389    N        0.39088    0.80490    0.28719    1.000
    N2390    N        0.38385    0.78758    0.35602    1.000
    Si2391   Si       0.37672    0.88884    0.33011    1.000
    N2392    N        0.36992    0.99327    0.32994    1.000
    N2393    N        0.38707    0.92890    0.31418    1.000
    Si2394   Si       0.35320    0.95699    0.31246    1.000
    N2395    N        0.36124    0.81957    0.44021    1.000
    Si2396   Si       0.37719    0.80949    0.39687    1.000
    Si2397   Si       0.37704    0.85417    0.46084    1.000
    Si2398   Si       0.35224    0.77689    0.44898    1.000
    N2399    N        0.38678    0.76792    0.41459    1.000
    N2400    N        0.38151    0.75857    0.47725    1.000
    N2401    N        0.35136    0.88241    0.43804    1.000
    N2402    N        0.38416    0.98698    0.39844    1.000
    Si2403   Si       0.39123    0.94379    0.47124    1.000
    N2404    N        0.38647    0.89321    0.37397    1.000
    N2405    N        0.39168    0.98815    0.47611    1.000
    Si2406   Si       0.36861    0.91049    0.40816    1.000
    N2407    N        0.35755    0.92849    0.49151    1.000
    Si2408   Si       0.36753    0.82017    0.59343    1.000
    N2409    N        0.37876    0.79895    0.55781    1.000
    N2410    N        0.36821    0.85735    0.50329    1.000
    Si2411   Si       0.38918    0.84029    0.53839    1.000
    N2412    N        0.38707    0.86001    0.57652    1.000
    Si2413   Si       0.36093    0.89441    0.57923    1.000
    N2414    N        0.37502    0.93330    0.58782    1.000
    N2415    N        0.36405    0.98517    0.53987    1.000
    Si2416   Si       0.38322    0.84799    0.65832    1.000
    N2417    N        0.38800    0.77611    0.70354    1.000
    N2418    N        0.38472    0.81423    0.63291    1.000
    Si2419   Si       0.39685    0.78294    0.66010    1.000
    N2420    N        0.33935    0.98303    0.62333    1.000
    N2421    N        0.36078    0.93070    0.66411    1.000
    Si2422   Si       0.34324    0.93702    0.62261    1.000
    N2423    N        0.34712    0.95062    0.73242    1.000
    Si2424   Si       0.34485    0.99311    0.74460    1.000
    Si2425   Si       0.37259    0.84966    0.83976    1.000
    Si2426   Si       0.36569    0.84873    0.76183    1.000
    N2427    N        0.38988    0.77806    0.82847    1.000
    N2428    N        0.39846    0.81956    0.76027    1.000
    N2429    N        0.34538    0.85644    0.80398    1.000
    Si2430   Si       0.35808    0.75927    0.80499    1.000
    N2431    N        0.34397    0.82061    0.85473    1.000
    N2432    N        0.37490    0.88544    0.86654    1.000
    Si2433   Si       0.37245    0.92533    0.76242    1.000
    Si2434   Si       0.38848    0.91926    0.84097    1.000
    N2435    N        0.36591    0.91965    0.80450    1.000
    N2436    N        0.38048    0.95528    0.86260    1.000
    N2437    N        0.38251    0.88548    0.74634    1.000
    Si2438   Si       0.38121    0.78379    0.87202    1.000
    Si2439   Si       0.38310    0.82974    0.92872    1.000
    N2440    N        0.34924    0.77416    0.90126    1.000
    N2441    N        0.38502    0.79808    0.95859    1.000
    Si2442   Si       0.36113    0.76367    0.94245    1.000
    N2443    N        0.40074    0.87039    0.93174    1.000
    Si2444   Si       0.37952    0.90262    0.90926    1.000
    N2445    N        0.39403    0.00696    0.91443    1.000
    N2446    N        0.37771    0.99415    0.98903    1.000
    N2447    N        0.43684    0.04264    0.09250    1.000
    Si2448   Si       0.43064    0.12534    0.10343    1.000
    N2449    N        0.45341    0.07640    0.00716    1.000
    N2450    N        0.44152    0.01338    0.02476    1.000
    N2451    N        0.45861    0.10176    0.07588    1.000
    N2452    N        0.44835    0.16601    0.10491    1.000
    Si2453   Si       0.43198    0.19202    0.07319    1.000
    Si2454   Si       0.44104    0.21040    0.00370    1.000
    N2455    N        0.41055    0.22872    0.08480    1.000
    N2456    N        0.40437    0.23061    0.01472    1.000
    Si2457   Si       0.45281    0.03413    0.21577    1.000
    N2458    N        0.43322    0.11788    0.21141    1.000
    N2459    N        0.44191    0.10073    0.13799    1.000
    N2460    N        0.42146    0.05534    0.19519    1.000
    Si2461   Si       0.45747    0.11665    0.17440    1.000
    N2462    N        0.45103    0.20887    0.15756    1.000
    Si2463   Si       0.41636    0.21682    0.18162    1.000
    Si2464   Si       0.41516    0.25383    0.12018    1.000
    N2465    N        0.43876    0.22722    0.21931    1.000
    N2466    N        0.40580    0.17199    0.24184    1.000
    N2467    N        0.42283    0.02984    0.31411    1.000
    N2468    N        0.41994    0.11149    0.28479    1.000
    Si2469   Si       0.45320    0.03979    0.34156    1.000
    Si2470   Si       0.43328    0.01357    0.27519    1.000
    Si2471   Si       0.44410    0.11491    0.32305    1.000
    N2472    N        0.40477    0.10640    0.34616    1.000
    N2473    N        0.46127    0.04540    0.25750    1.000
    N2474    N        0.43031    0.20652    0.29263    1.000
    N2475    N        0.44043    0.21526    0.35949    1.000
    Si2476   Si       0.43818    0.19819    0.25084    1.000
    Si2477   Si       0.45572    0.19257    0.32368    1.000
    Si2478   Si       0.43193    0.13523    0.25150    1.000
    Si2479   Si       0.40245    0.07451    0.37790    1.000
    N2480    N        0.40975    0.09311    0.41818    1.000
    Si2481   Si       0.45129    0.02982    0.41754    1.000
    N2482    N        0.43537    0.04648    0.38080    1.000
    N2483    N        0.42913    0.03969    0.45410    1.000
    Si2484   Si       0.43559    0.12916    0.42094    1.000
    Si2485   Si       0.43087    0.00866    0.48159    1.000
    N2486    N        0.41326    0.15678    0.39641    1.000
    Si2487   Si       0.44783    0.25195    0.49175    1.000
    Si2488   Si       0.40979    0.21262    0.46705    1.000
    Si2489   Si       0.42089    0.19905    0.39445    1.000
    N2490    N        0.44498    0.13809    0.46270    1.000
    N2491    N        0.43850    0.20979    0.43351    1.000
    Si2492   Si       0.39532    0.25831    0.42212    1.000
    N2493    N        0.41360    0.25670    0.46235    1.000
    N2494    N        0.42452    0.07268    0.56744    1.000
    Si2495   Si       0.44753    0.09104    0.59941    1.000
    N2496    N        0.42605    0.02231    0.52217    1.000
    Si2497   Si       0.44940    0.05618    0.53585    1.000
    N2498    N        0.43271    0.13111    0.59127    1.000
    Si2499   Si       0.42798    0.11797    0.49728    1.000
    Si2500   Si       0.44890    0.18132    0.52810    1.000
    N2501    N        0.44588    0.19678    0.56780    1.000
    N2502    N        0.41985    0.14985    0.52573    1.000
    Si2503   Si       0.40696    0.21648    0.57331    1.000
    N2504    N        0.41602    0.23398    0.61564    1.000
    N2505    N        0.44019    0.21008    0.49872    1.000
    Si2506   Si       0.40075    0.14272    0.56477    1.000
    Si2507   Si       0.45776    0.16746    0.59717    1.000
    N2508    N        0.41997    0.07452    0.62922    1.000
    N2509    N        0.42764    0.12103    0.67593    1.000
    Si2510   Si       0.42413    0.09769    0.71355    1.000
    N2511    N        0.40594    0.06275    0.69566    1.000
    Si2512   Si       0.44900    0.19157    0.73031    1.000
    N2513    N        0.45333    0.17837    0.63843    1.000
    Si2514   Si       0.44422    0.21976    0.65341    1.000
    N2515    N        0.42791    0.20899    0.69465    1.000
    N2516    N        0.42506    0.05288    0.77793    1.000
    N2517    N        0.44292    0.05210    0.84786    1.000
    Si2518   Si       0.45122    0.03482    0.81024    1.000
    N2519    N        0.44740    0.11782    0.78652    1.000
    N2520    N        0.45865    0.12754    0.86383    1.000
    Si2521   Si       0.45910    0.08039    0.77005    1.000
    Si2522   Si       0.41069    0.14042    0.77342    1.000
    N2523    N        0.42598    0.23903    0.80633    1.000
    N2524    N        0.42225    0.19414    0.85700    1.000
    N2525    N        0.41573    0.18203    0.75922    1.000
    Si2526   Si       0.45220    0.21236    0.83121    1.000
    Si2527   Si       0.44683    0.14310    0.82291    1.000
    N2528    N        0.40225    0.14428    0.81865    1.000
    Si2529   Si       0.44466    0.08397    0.87713    1.000
    Si2530   Si       0.41648    0.09122    0.98788    1.000
    N2531    N        0.41254    0.07270    0.90433    1.000
    Si2532   Si       0.41692    0.03989    0.93265    1.000
    N2533    N        0.41959    0.11774    0.95330    1.000
    N2534    N        0.45724    0.03638    0.94864    1.000
    N2535    N        0.44439    0.24505    0.89697    1.000
    N2536    N        0.42993    0.16987    0.99219    1.000
    Si2537   Si       0.44463    0.15267    0.95531    1.000
    Si2538   Si       0.43241    0.15932    0.88353    1.000
    Si2539   Si       0.43584    0.22090    0.93150    1.000
    N2540    N        0.45566    0.23110    0.96964    1.000
    N2541    N        0.43843    0.17969    0.92097    1.000
    N2542    N        0.41894    0.33298    0.03774    1.000
    N2543    N        0.45022    0.33199    0.10650    1.000
    Si2544   Si       0.40890    0.33107    0.11847    1.000
    Si2545   Si       0.45947    0.32002    0.04478    1.000
    Si2546   Si       0.42517    0.42609    0.06653    1.000
    N2547    N        0.42021    0.45973    0.09618    1.000
    N2548    N        0.44264    0.40240    0.09964    1.000
    N2549    N        0.45394    0.43219    0.03667    1.000
    Si2550   Si       0.42378    0.33930    0.19880    1.000
    Si2551   Si       0.42254    0.26657    0.23496    1.000
    N2552    N        0.43820    0.35075    0.24014    1.000
    N2553    N        0.45781    0.26497    0.12605    1.000
    N2554    N        0.40383    0.38049    0.19359    1.000
    N2555    N        0.39813    0.30148    0.21500    1.000
    N2556    N        0.40671    0.50281    0.21372    1.000
    N2557    N        0.40659    0.42970    0.23861    1.000
    Si2558   Si       0.44309    0.43633    0.12756    1.000
    Si2559   Si       0.42108    0.41844    0.20054    1.000
    N2560    N        0.42283    0.44588    0.16649    1.000
    Si2561   Si       0.41418    0.48818    0.17323    1.000
    Si2562   Si       0.42482    0.34708    0.28297    1.000
    N2563    N        0.40600    0.26539    0.32858    1.000
    Si2564   Si       0.43677    0.25980    0.35758    1.000
    N2565    N        0.41967    0.38646    0.29941    1.000
    Si2566   Si       0.42374    0.42558    0.27955    1.000
    N2567    N        0.41273    0.48833    0.36562    1.000
    N2568    N        0.41307    0.41944    0.36571    1.000
    N2569    N        0.45279    0.50865    0.31562    1.000
    N2570    N        0.46162    0.44816    0.27868    1.000
    Si2571   Si       0.43190    0.36707    0.46223    1.000
    N2572    N        0.42174    0.32547    0.45229    1.000
    N2573    N        0.42251    0.27693    0.39500    1.000
    Si2574   Si       0.42925    0.31649    0.41096    1.000
    N2575    N        0.40886    0.35064    0.38904    1.000
    N2576    N        0.40522    0.37533    0.49407    1.000
    N2577    N        0.42860    0.39868    0.43294    1.000
    Si2578   Si       0.43212    0.38798    0.39087    1.000
    Si2579   Si       0.43734    0.45438    0.37361    1.000
    N2580    N        0.45040    0.45755    0.41463    1.000
    Si2581   Si       0.41767    0.44080    0.43992    1.000
    N2582    N        0.42649    0.45016    0.48267    1.000
    Si2583   Si       0.42901    0.27574    0.61001    1.000
    Si2584   Si       0.43578    0.36764    0.52451    1.000
    N2585    N        0.43805    0.27660    0.52493    1.000
    N2586    N        0.45353    0.33944    0.55114    1.000
    N2587    N        0.42552    0.39484    0.55624    1.000
    N2588    N        0.44082    0.44103    0.60299    1.000
    Si2589   Si       0.45801    0.41983    0.57053    1.000
    N2590    N        0.41049    0.29173    0.71794    1.000
    Si2591   Si       0.44490    0.30480    0.73805    1.000
    N2592    N        0.43720    0.34831    0.73145    1.000
    N2593    N        0.43191    0.29152    0.65068    1.000
    N2594    N        0.43814    0.44951    0.67653    1.000
    Si2595   Si       0.42375    0.28201    0.81356    1.000
    N2596    N        0.43775    0.29197    0.85421    1.000
    Si2597   Si       0.44736    0.33558    0.85512    1.000
    N2598    N        0.44717    0.29944    0.78037    1.000
    N2599    N        0.40820    0.35552    0.84064    1.000
    N2600    N        0.42193    0.45196    0.77183    1.000
    Si2601   Si       0.40898    0.39647    0.82226    1.000
    N2602    N        0.45020    0.40613    0.80882    1.000
    Si2603   Si       0.41014    0.49165    0.78798    1.000
    Si2604   Si       0.42060    0.31297    0.95286    1.000
    Si2605   Si       0.41109    0.27237    0.88574    1.000
    N2606    N        0.42377    0.35636    0.95397    1.000
    Si2607   Si       0.44871    0.37735    0.92349    1.000
    N2608    N        0.45846    0.29688    0.94893    1.000
    N2609    N        0.43015    0.49510    0.99493    1.000
    Si2610   Si       0.43066    0.49852    0.89800    1.000
    N2611    N        0.40396    0.46939    0.88248    1.000
    N2612    N        0.41400    0.40247    0.91494    1.000
    N2613    N        0.44136    0.56896    0.03756    1.000
    Si2614   Si       0.44132    0.53109    0.05778    1.000
    Si2615   Si       0.40538    0.57759    0.01298    1.000
    Si2616   Si       0.45853    0.60967    0.04731    1.000
    N2617    N        0.40423    0.52892    0.08035    1.000
    N2618    N        0.42571    0.63860    0.05012    1.000
    N2619    N        0.41612    0.70371    0.05990    1.000
    Si2620   Si       0.40669    0.68355    0.09952    1.000
    Si2621   Si       0.41538    0.75140    0.10238    1.000
    N2622    N        0.45607    0.74502    0.08736    1.000
    Si2623   Si       0.45935    0.70974    0.05915    1.000
    Si2624   Si       0.42962    0.52996    0.12437    1.000
    Si2625   Si       0.44829    0.52121    0.22090    1.000
    Si2626   Si       0.44829    0.58253    0.17013    1.000
    N2627    N        0.41933    0.56862    0.14097    1.000
    N2628    N        0.43988    0.56431    0.20885    1.000
    N2629    N        0.42309    0.62412    0.23663    1.000
    N2630    N        0.45795    0.62444    0.17840    1.000
    N2631    N        0.44943    0.50896    0.15847    1.000
    Si2632   Si       0.44693    0.58859    0.24445    1.000
    N2633    N        0.43518    0.65889    0.12066    1.000
    N2634    N        0.42862    0.68054    0.18961    1.000
    Si2635   Si       0.42636    0.64715    0.16084    1.000
    Si2636   Si       0.46141    0.64557    0.22324    1.000
    N2637    N        0.44041    0.57918    0.28808    1.000
    N2638    N        0.41632    0.55696    0.35043    1.000
    Si2639   Si       0.42463    0.59160    0.32683    1.000
    Si2640   Si       0.41424    0.51772    0.33328    1.000
    N2641    N        0.46035    0.60746    0.35230    1.000
    Si2642   Si       0.45461    0.71689    0.34144    1.000
    Si2643   Si       0.43723    0.64486    0.36065    1.000
    Si2644   Si       0.45358    0.71306    0.26194    1.000
    N2645    N        0.42465    0.73964    0.36316    1.000
    N2646    N        0.45166    0.73207    0.29957    1.000
    N2647    N        0.45345    0.67480    0.33356    1.000
    N2648    N        0.41117    0.71692    0.24710    1.000
    N2649    N        0.40272    0.53443    0.41340    1.000
    Si2650   Si       0.43395    0.55757    0.39115    1.000
    N2651    N        0.42316    0.59267    0.41712    1.000
    Si2652   Si       0.44124    0.62917    0.43169    1.000
    N2653    N        0.43947    0.72637    0.45687    1.000
    N2654    N        0.42663    0.65825    0.46248    1.000
    Si2655   Si       0.44751    0.68924    0.43668    1.000
    N2656    N        0.43943    0.65995    0.40134    1.000
    N2657    N        0.42355    0.56028    0.51789    1.000
    N2658    N        0.45352    0.58908    0.57388    1.000
    Si2659   Si       0.41546    0.57080    0.55933    1.000
    Si2660   Si       0.43116    0.62701    0.58022    1.000
    Si2661   Si       0.46213    0.54781    0.50918    1.000
    N2662    N        0.43818    0.66409    0.55971    1.000
    Si2663   Si       0.44191    0.72380    0.50194    1.000
    Si2664   Si       0.40283    0.68899    0.55152    1.000
    N2665    N        0.40471    0.69814    0.50959    1.000
    N2666    N        0.41515    0.63604    0.61890    1.000
    N2667    N        0.43963    0.75845    0.52509    1.000
    N2668    N        0.45325    0.60300    0.66584    1.000
    N2669    N        0.43880    0.54301    0.63215    1.000
    Si2670   Si       0.44878    0.56119    0.67255    1.000
    N2671    N        0.41744    0.55023    0.69917    1.000
    Si2672   Si       0.42849    0.54020    0.74052    1.000
    Si2673   Si       0.41829    0.62722    0.66161    1.000
    N2674    N        0.44227    0.72398    0.67847    1.000
    Si2675   Si       0.40461    0.70631    0.66749    1.000
    N2676    N        0.42115    0.66463    0.68358    1.000
    N2677    N        0.42073    0.57610    0.76299    1.000
    N2678    N        0.41583    0.55550    0.84493    1.000
    N2679    N        0.42498    0.61910    0.81689    1.000
    Si2680   Si       0.42146    0.59604    0.85419    1.000
    Si2681   Si       0.44721    0.59893    0.78826    1.000
    Si2682   Si       0.45453    0.53940    0.83337    1.000
    N2683    N        0.44610    0.51201    0.80017    1.000
    N2684    N        0.40417    0.70960    0.82560    1.000
    N2685    N        0.43956    0.74623    0.78967    1.000
    Si2686   Si       0.40832    0.71623    0.78238    1.000
    Si2687   Si       0.42482    0.74851    0.83527    1.000
    N2688    N        0.42347    0.68824    0.75283    1.000
    Si2689   Si       0.42161    0.57508    0.92425    1.000
    N2690    N        0.44010    0.59937    0.89262    1.000
    N2691    N        0.40897    0.53241    0.91758    1.000
    N2692    N        0.40839    0.61189    0.98773    1.000
    N2693    N        0.45890    0.57636    0.94620    1.000
    N2694    N        0.43144    0.68032    0.98059    1.000
    Si2695   Si       0.44408    0.63737    0.98529    1.000
    N2696    N        0.44596    0.69929    0.90858    1.000
    N2697    N        0.41118    0.74979    0.87975    1.000
    Si2698   Si       0.40573    0.71579    0.90437    1.000
    N2699    N        0.43928    0.84409    0.08292    1.000
    N2700    N        0.41070    0.83448    0.01868    1.000
    N2701    N        0.41955    0.76211    0.01546    1.000
    Si2702   Si       0.40268    0.84661    0.06097    1.000
    Si2703   Si       0.43748    0.86272    0.99837    1.000
    Si2704   Si       0.41708    0.98257    0.00634    1.000
    N2705    N        0.41567    0.95324    0.10457    1.000
    N2706    N        0.40581    0.95112    0.03547    1.000
    Si2707   Si       0.45737    0.94323    0.09345    1.000
    N2708    N        0.41906    0.79204    0.12191    1.000
    Si2709   Si       0.44846    0.82234    0.11908    1.000
    N2710    N        0.44202    0.84566    0.15595    1.000
    N2711    N        0.41137    0.81849    0.21830    1.000
    Si2712   Si       0.44978    0.82105    0.23684    1.000
    Si2713   Si       0.40635    0.84612    0.18335    1.000
    N2714    N        0.41221    0.00242    0.14450    1.000
    N2715    N        0.43831    0.99439    0.22501    1.000
    Si2716   Si       0.40655    0.96028    0.14533    1.000
    N2717    N        0.42944    0.93425    0.17329    1.000
    N2718    N        0.44515    0.92152    0.24082    1.000
    Si2719   Si       0.41517    0.91936    0.21060    1.000
    Si2720   Si       0.42262    0.82757    0.30096    1.000
    N2721    N        0.44536    0.79912    0.32666    1.000
    N2722    N        0.44414    0.85033    0.26782    1.000
    Si2723   Si       0.42932    0.78673    0.36382    1.000
    N2724    N        0.40748    0.85994    0.32762    1.000
    Si2725   Si       0.42158    0.86587    0.36752    1.000
    Si2726   Si       0.42774    0.94297    0.31905    1.000
    N2727    N        0.44173    0.97127    0.28724    1.000
    N2728    N        0.43811    0.95609    0.36032    1.000
    N2729    N        0.45434    0.90887    0.30986    1.000
    Si2730   Si       0.45985    0.89067    0.26953    1.000
    Si2731   Si       0.46037    0.96163    0.24721    1.000
    Si2732   Si       0.41515    0.76374    0.45010    1.000
    N2733    N        0.41764    0.82888    0.39186    1.000
    Si2734   Si       0.44210    0.83762    0.48132    1.000
    N2735    N        0.42014    0.86589    0.45715    1.000
    N2736    N        0.43843    0.80176    0.45292    1.000
    Si2737   Si       0.45410    0.81988    0.41732    1.000
    N2738    N        0.46407    0.98005    0.47819    1.000
    N2739    N        0.42874    0.92542    0.48526    1.000
    N2740    N        0.45080    0.98531    0.41402    1.000
    N2741    N        0.40001    0.93058    0.42693    1.000
    Si2742   Si       0.43473    0.90597    0.44694    1.000
    Si2743   Si       0.41804    0.96199    0.39933    1.000
    N2744    N        0.43100    0.83777    0.52455    1.000
    N2745    N        0.43939    0.78080    0.58424    1.000
    Si2746   Si       0.42300    0.87111    0.60065    1.000
    Si2747   Si       0.40690    0.76494    0.55722    1.000
    Si2748   Si       0.45417    0.80115    0.61868    1.000
    N2749    N        0.45508    0.84314    0.60699    1.000
    N2750    N        0.41346    0.99120    0.59178    1.000
    N2751    N        0.43085    0.95837    0.54413    1.000
    N2752    N        0.43943    0.90764    0.57868    1.000
    Si2753   Si       0.41754    0.94483    0.58712    1.000
    Si2754   Si       0.40694    0.99242    0.54935    1.000
    Si2755   Si       0.45377    0.95083    0.50933    1.000
    N2756    N        0.40444    0.84063    0.69656    1.000
    N2757    N        0.45521    0.78252    0.72495    1.000
    N2758    N        0.44099    0.78764    0.65819    1.000
    Si2759   Si       0.41549    0.80469    0.72270    1.000
    Si2760   Si       0.41945    0.87632    0.71914    1.000
    N2761    N        0.40452    0.88132    0.63968    1.000
    Si2762   Si       0.43179    0.95074    0.72170    1.000
    N2763    N        0.42902    0.94394    0.63256    1.000
    Si2764   Si       0.40197    0.91926    0.65959    1.000
    Si2765   Si       0.42790    0.99025    0.63102    1.000
    N2766    N        0.41741    0.91845    0.69918    1.000
    N2767    N        0.41816    0.99277    0.71722    1.000
    Si2768   Si       0.42885    0.83859    0.78631    1.000
    Si2769   Si       0.44001    0.87219    0.84968    1.000
    N2770    N        0.41339    0.85005    0.82497    1.000
    N2771    N        0.44575    0.86450    0.75468    1.000
    N2772    N        0.44957    0.99528    0.78858    1.000
    N2773    N        0.43104    0.91304    0.84644    1.000
    Si2774   Si       0.41586    0.99325    0.76246    1.000
    N2775    N        0.41023    0.94877    0.75929    1.000
    Si2776   Si       0.44391    0.87073    0.92987    1.000
    Si2777   Si       0.44664    0.81788    0.89026    1.000
    N2778    N        0.45197    0.85964    0.88923    1.000
    N2779    N        0.45473    0.84363    0.96370    1.000
    N2780    N        0.40260    0.81527    0.89284    1.000
    N2781    N        0.44482    0.97553    0.87248    1.000
    Si2782   Si       0.40726    0.97218    0.89322    1.000
    N2783    N        0.40387    0.93725    0.92182    1.000
    N2784    N        0.44421    0.96248    0.97782    1.000
    Si2785   Si       0.42924    0.92927    0.95559    1.000
    N2786    N        0.41784    0.90073    0.98819    1.000
    N2787    N        0.49758    0.04693    0.05439    1.000
    Si2788   Si       0.47851    0.08658    0.04143    1.000
    N2789    N        0.50600    0.11343    0.02178    1.000
    Si2790   Si       0.46085    0.02134    0.06140    1.000
    Si2791   Si       0.46103    0.07249    0.11004    1.000
    N2792    N        0.50011    0.00927    0.99652    1.000
    N2793    N        0.46172    0.20239    0.04278    1.000
    Si2794   Si       0.50421    0.19813    0.03969    1.000
    N2795    N        0.49866    0.05952    0.12441    1.000
    N2796    N        0.48766    0.02840    0.19101    1.000
    Si2797   Si       0.50673    0.05830    0.16762    1.000
    N2798    N        0.49500    0.09434    0.18441    1.000
    Si2799   Si       0.51933    0.13281    0.18363    1.000
    Si2800   Si       0.48162    0.24628    0.22341    1.000
    N2801    N        0.50877    0.21186    0.12693    1.000
    N2802    N        0.48280    0.14927    0.16133    1.000
    Si2803   Si       0.48266    0.23847    0.15054    1.000
    Si2804   Si       0.47623    0.18128    0.13367    1.000
    N2805    N        0.50118    0.25555    0.18554    1.000
    Si2806   Si       0.48740    0.06665    0.28372    1.000
    N2807    N        0.49699    0.10555    0.26759    1.000
    N2808    N        0.46882    0.07772    0.32337    1.000
    N2809    N        0.52012    0.03991    0.29176    1.000
    N2810    N        0.48378    0.01129    0.34977    1.000
    N2811    N        0.46494    0.15110    0.33231    1.000
    N2812    N        0.49529    0.21090    0.32244    1.000
    Si2813   Si       0.50450    0.14695    0.26107    1.000
    Si2814   Si       0.49542    0.14517    0.36396    1.000
    N2815    N        0.50300    0.22406    0.25234    1.000
    Si2816   Si       0.50364    0.22068    0.36496    1.000
    N2817    N        0.46552    0.16414    0.25755    1.000
    N2818    N        0.51395    0.12134    0.47006    1.000
    N2819    N        0.49244    0.04392    0.41970    1.000
    N2820    N        0.47042    0.12563    0.39518    1.000
    N2821    N        0.48328    0.25585    0.46648    1.000
    N2822    N        0.51053    0.18155    0.38254    1.000
    Si2823   Si       0.47865    0.22231    0.43865    1.000
    N2824    N        0.49020    0.24185    0.40073    1.000
    N2825    N        0.49848    0.18524    0.44942    1.000
    Si2826   Si       0.48521    0.15327    0.47475    1.000
    N2827    N        0.48780    0.04145    0.54459    1.000
    N2828    N        0.48970    0.07770    0.60294    1.000
    Si2829   Si       0.50508    0.09062    0.50100    1.000
    Si2830   Si       0.51503    0.06760    0.57000    1.000
    N2831    N        0.46104    0.08874    0.50810    1.000
    N2832    N        0.48673    0.16147    0.51633    1.000
    N2833    N        0.49836    0.15514    0.58607    1.000
    Si2834   Si       0.51256    0.14780    0.54731    1.000
    Si2835   Si       0.50013    0.07734    0.70701    1.000
    N2836    N        0.49482    0.05812    0.66849    1.000
    Si2837   Si       0.50790    0.08796    0.64086    1.000
    Si2838   Si       0.50021    0.01547    0.66204    1.000
    N2839    N        0.49653    0.12863    0.64912    1.000
    N2840    N        0.46373    0.08428    0.72659    1.000
    Si2841   Si       0.46056    0.14793    0.66985    1.000
    N2842    N        0.47986    0.24367    0.65797    1.000
    N2843    N        0.47493    0.16203    0.70881    1.000
    N2844    N        0.48876    0.05697    0.79525    1.000
    N2845    N        0.48378    0.24162    0.84139    1.000
    N2846    N        0.46883    0.17938    0.81234    1.000
    Si2847   Si       0.49939    0.18971    0.78156    1.000
    N2848    N        0.47904    0.21668    0.75260    1.000
    Si2849   Si       0.49815    0.25710    0.74837    1.000
    Si2850   Si       0.51744    0.24651    0.81820    1.000
    Si2851   Si       0.49823    0.11301    0.87641    1.000
    N2852    N        0.51196    0.02570    0.90340    1.000
    Si2853   Si       0.49385    0.05480    0.93009    1.000
    N2854    N        0.47981    0.08376    0.90204    1.000
    Si2855   Si       0.51026    0.11347    0.97745    1.000
    Si2856   Si       0.46441    0.03498    0.99352    1.000
    N2857    N        0.51442    0.07348    0.96462    1.000
    N2858    N        0.48545    0.14256    0.95700    1.000
    N2859    N        0.51697    0.19351    0.99677    1.000
    Si2860   Si       0.51831    0.17204    0.95936    1.000
    N2861    N        0.48618    0.29318    0.07054    1.000
    N2862    N        0.47952    0.35834    0.05580    1.000
    Si2863   Si       0.47648    0.29931    0.11092    1.000
    N2864    N        0.47393    0.29181    0.01170    1.000
    Si2865   Si       0.50956    0.28213    0.03673    1.000
    Si2866   Si       0.46987    0.36914    0.09806    1.000
    Si2867   Si       0.51597    0.37493    0.03892    1.000
    N2868    N        0.50209    0.38201    0.99624    1.000
    Si2869   Si       0.48920    0.42179    0.01308    1.000
    Si2870   Si       0.47274    0.48957    0.00446    1.000
    N2871    N        0.51677    0.41868    0.04545    1.000
    N2872    N        0.47312    0.50415    0.04611    1.000
    N2873    N        0.50174    0.37159    0.12668    1.000
    Si2874   Si       0.50663    0.34209    0.16542    1.000
    Si2875   Si       0.47708    0.37056    0.21628    1.000
    N2876    N        0.51216    0.31010    0.13272    1.000
    N2877    N        0.46708    0.34200    0.18413    1.000
    N2878    N        0.50364    0.34891    0.24417    1.000
    N2879    N        0.51596    0.38161    0.18877    1.000
    N2880    N        0.46274    0.28276    0.24058    1.000
    Si2881   Si       0.51086    0.40711    0.15175    1.000
    N2882    N        0.46140    0.41166    0.21532    1.000
    N2883    N        0.46972    0.48206    0.21255    1.000
    N2884    N        0.48564    0.44006    0.13251    1.000
    Si2885   Si       0.48875    0.49936    0.17551    1.000
    N2886    N        0.51610    0.43527    0.24318    1.000
    Si2887   Si       0.47477    0.44826    0.23713    1.000
    Si2888   Si       0.49058    0.31263    0.32412    1.000
    Si2889   Si       0.48285    0.31572    0.26259    1.000
    N2890    N        0.47461    0.28092    0.35082    1.000
    N2891    N        0.51403    0.34239    0.34647    1.000
    N2892    N        0.51606    0.30382    0.28915    1.000
    N2893    N        0.45721    0.32638    0.29942    1.000
    Si2894   Si       0.47654    0.47193    0.31152    1.000
    N2895    N        0.47477    0.45011    0.34952    1.000
    N2896    N        0.51810    0.48659    0.30386    1.000
    Si2897   Si       0.49956    0.42242    0.36990    1.000
    Si2898   Si       0.49591    0.35312    0.38403    1.000
    Si2899   Si       0.49237    0.28458    0.39182    1.000
    N2900    N        0.47348    0.32260    0.40238    1.000
    Si2901   Si       0.50898    0.36200    0.48622    1.000
    N2902    N        0.46650    0.36870    0.49179    1.000
    Si2903   Si       0.51331    0.28509    0.48364    1.000
    N2904    N        0.51458    0.43194    0.40955    1.000
    N2905    N        0.49472    0.45575    0.47300    1.000
    N2906    N        0.47232    0.38812    0.37581    1.000
    Si2907   Si       0.48991    0.46183    0.42959    1.000
    N2908    N        0.50138    0.50311    0.42896    1.000
    N2909    N        0.50304    0.29704    0.52561    1.000
    Si2910   Si       0.50657    0.29537    0.60610    1.000
    N2911    N        0.46725    0.28330    0.59120    1.000
    Si2912   Si       0.46603    0.29868    0.54956    1.000
    N2913    N        0.52190    0.33085    0.58412    1.000
    N2914    N        0.49724    0.40780    0.58435    1.000
    N2915    N        0.47431    0.44535    0.54016    1.000
    Si2916   Si       0.46368    0.46065    0.50064    1.000
    N2917    N        0.46445    0.50536    0.50005    1.000
    Si2918   Si       0.51436    0.44220    0.56012    1.000
    N2919    N        0.47869    0.28506    0.71792    1.000
    N2920    N        0.49552    0.30823    0.64686    1.000
    N2921    N        0.48743    0.35783    0.69271    1.000
    Si2922   Si       0.47509    0.36723    0.73137    1.000
    Si2923   Si       0.47101    0.28228    0.67354    1.000
    Si2924   Si       0.51599    0.34355    0.66307    1.000
    N2925    N        0.46899    0.41098    0.73603    1.000
    N2926    N        0.49155    0.42553    0.65956    1.000
    Si2927   Si       0.47268    0.43484    0.69912    1.000
    N2928    N        0.48979    0.48388    0.62618    1.000
    Si2929   Si       0.46247    0.45188    0.63900    1.000
    N2930    N        0.49899    0.46858    0.70740    1.000
    N2931    N        0.47839    0.34459    0.82720    1.000
    N2932    N        0.49783    0.34510    0.76109    1.000
    Si2933   Si       0.48528    0.31726    0.79206    1.000
    N2934    N        0.51142    0.27973    0.78685    1.000
    Si2935   Si       0.48610    0.38610    0.82088    1.000
    N2936    N        0.49049    0.46135    0.78331    1.000
    Si2937   Si       0.48186    0.50455    0.77805    1.000
    N2938    N        0.50926    0.40439    0.85309    1.000
    N2939    N        0.51618    0.39803    0.78950    1.000
    Si2940   Si       0.46060    0.43313    0.77448    1.000
    Si2941   Si       0.47098    0.26736    0.87332    1.000
    Si2942   Si       0.47413    0.26821    0.97720    1.000
    N2943    N        0.50151    0.27693    0.90032    1.000
    Si2944   Si       0.48608    0.31339    0.92072    1.000
    N2945    N        0.51476    0.33432    0.94670    1.000
    Si2946   Si       0.51352    0.37804    0.95499    1.000
    N2947    N        0.52056    0.26411    0.96916    1.000
    N2948    N        0.46412    0.34582    0.89614    1.000
    N2949    N        0.46310    0.47748    0.91997    1.000
    Si2950   Si       0.49370    0.50359    0.89677    1.000
    N2951    N        0.48883    0.45393    0.98444    1.000
    Si2952   Si       0.48752    0.44526    0.94034    1.000
    N2953    N        0.48149    0.40299    0.93652    1.000
    Si2954   Si       0.49074    0.57290    0.10509    1.000
    N2955    N        0.47847    0.61039    0.08649    1.000
    N2956    N        0.47673    0.61855    0.00914    1.000
    Si2957   Si       0.49928    0.51365    0.08078    1.000
    N2958    N        0.46454    0.53732    0.09671    1.000
    Si2959   Si       0.51860    0.61199    0.99606    1.000
    N2960    N        0.47911    0.72976    0.02631    1.000
    N2961    N        0.48812    0.68251    0.07800    1.000
    Si2962   Si       0.47650    0.64957    0.10366    1.000
    N2963    N        0.48720    0.57823    0.14782    1.000
    N2964    N        0.50591    0.53587    0.19693    1.000
    N2965    N        0.48426    0.60955    0.23957    1.000
    Si2966   Si       0.51455    0.53340    0.23837    1.000
    N2967    N        0.48554    0.72820    0.23367    1.000
    Si2968   Si       0.50015    0.63398    0.17298    1.000
    N2969    N        0.49872    0.66519    0.20469    1.000
    N2970    N        0.50782    0.65353    0.13528    1.000
    Si2971   Si       0.51206    0.70603    0.20728    1.000
    N2972    N        0.50333    0.55639    0.31748    1.000
    Si2973   Si       0.49982    0.59576    0.33734    1.000
    N2974    N        0.47361    0.53270    0.25399    1.000
    Si2975   Si       0.46725    0.54493    0.29554    1.000
    N2976    N        0.50891    0.62971    0.31488    1.000
    Si2977   Si       0.48506    0.66376    0.30258    1.000
    N2978    N        0.49503    0.73158    0.35632    1.000
    N2979    N        0.46177    0.67009    0.26524    1.000
    Si2980   Si       0.51157    0.53344    0.39867    1.000
    N2981    N        0.48106    0.62154    0.44793    1.000
    N2982    N        0.47604    0.55625    0.46833    1.000
    N2983    N        0.47279    0.54628    0.38543    1.000
    Si2984   Si       0.50310    0.58577    0.45567    1.000
    Si2985   Si       0.49583    0.51388    0.47059    1.000
    N2986    N        0.49112    0.68912    0.43481    1.000
    Si2987   Si       0.51175    0.65199    0.44677    1.000
    N2988    N        0.51523    0.75759    0.42061    1.000
    Si2989   Si       0.49922    0.58280    0.57719    1.000
    N2990    N        0.49445    0.55486    0.53577    1.000
    N2991    N        0.50644    0.54853    0.60543    1.000
    N2992    N        0.50241    0.61303    0.61110    1.000
    N2993    N        0.49978    0.64136    0.53505    1.000
    Si2994   Si       0.47726    0.67472    0.54939    1.000
    N2995    N        0.47705    0.70375    0.51694    1.000
    N2996    N        0.49577    0.68829    0.58563    1.000
    N2997    N        0.50456    0.75143    0.56324    1.000
    N2998    N        0.48191    0.53473    0.67436    1.000
    Si2999   Si       0.47897    0.52581    0.62948    1.000
    Si3000   Si       0.48847    0.62290    0.65176    1.000
    N3001    N        0.46951    0.52203    0.74100    1.000
    Si3002   Si       0.49438    0.51055    0.70820    1.000
    N3003    N        0.48504    0.66635    0.65522    1.000
    Si3004   Si       0.46330    0.68481    0.68735    1.000
    N3005    N        0.48735    0.68344    0.72331    1.000
    Si3006   Si       0.51178    0.68191    0.62412    1.000
    N3007    N        0.50097    0.75680    0.67301    1.000
    N3008    N        0.47312    0.57377    0.81231    1.000
    Si3009   Si       0.51254    0.61923    0.76380    1.000
    N3010    N        0.46908    0.62892    0.76296    1.000
    N3011    N        0.51612    0.52121    0.79996    1.000
    N3012    N        0.46230    0.51389    0.86912    1.000
    N3013    N        0.48304    0.68818    0.79312    1.000
    Si3014   Si       0.47704    0.73002    0.80204    1.000
    N3015    N        0.49975    0.67069    0.86338    1.000
    Si3016   Si       0.51260    0.67160    0.82222    1.000
    N3017    N        0.46728    0.73084    0.84393    1.000
    Si3018   Si       0.46403    0.67365    0.75791    1.000
    N3019    N        0.50431    0.75547    0.77682    1.000
    Si3020   Si       0.47235    0.61112    0.91869    1.000
    Si3021   Si       0.49295    0.55257    0.95635    1.000
    N3022    N        0.50590    0.54087    0.91674    1.000
    N3023    N        0.49738    0.51608    0.98008    1.000
    N3024    N        0.51164    0.61211    0.90222    1.000
    Si3025   Si       0.50275    0.73656    0.99042    1.000
    N3026    N        0.46690    0.64281    0.94581    1.000
    N3027    N        0.50552    0.73323    0.89835    1.000
    Si3028   Si       0.46212    0.68483    0.94550    1.000
    Si3029   Si       0.47504    0.70654    0.87811    1.000
    N3030    N        0.49650    0.70610    0.96230    1.000
    Si3031   Si       0.47567    0.84171    0.05637    1.000
    N3032    N        0.47555    0.79818    0.04891    1.000
    Si3033   Si       0.48895    0.77158    0.08202    1.000
    N3034    N        0.47205    0.87236    0.02067    1.000
    N3035    N        0.50977    0.85966    0.07423    1.000
    N3036    N        0.48750    0.80078    0.11443    1.000
    Si3037   Si       0.46137    0.76968    0.01889    1.000
    Si3038   Si       0.50398    0.89024    0.10728    1.000
    N3039    N        0.47306    0.98416    0.08023    1.000
    Si3040   Si       0.49849    0.90420    0.02754    1.000
    N3041    N        0.48950    0.92599    0.06556    1.000
    N3042    N        0.50804    0.94061    0.99989    1.000
    Si3043   Si       0.51039    0.96491    0.07360    1.000
    N3044    N        0.48173    0.82797    0.20815    1.000
    Si3045   Si       0.47899    0.85768    0.17579    1.000
    N3046    N        0.50335    0.85932    0.14061    1.000
    N3047    N        0.48791    0.89659    0.18971    1.000
    Si3048   Si       0.50546    0.98977    0.19811    1.000
    N3049    N        0.49870    0.96060    0.16712    1.000
    Si3050   Si       0.47168    0.92802    0.16606    1.000
    N3051    N        0.50181    0.97133    0.23687    1.000
    N3052    N        0.47048    0.91513    0.12443    1.000
    N3053    N        0.50833    0.76436    0.29643    1.000
    Si3054   Si       0.46756    0.77283    0.30229    1.000
    N3055    N        0.46312    0.78660    0.25887    1.000
    Si3056   Si       0.50192    0.76364    0.25108    1.000
    N3057    N        0.50210    0.89165    0.25993    1.000
    Si3058   Si       0.48061    0.90622    0.34322    1.000
    N3059    N        0.49998    0.94532    0.34696    1.000
    N3060    N        0.51734    0.88583    0.32740    1.000
    Si3061   Si       0.50094    0.76782    0.38085    1.000
    N3062    N        0.48708    0.84768    0.42788    1.000
    Si3063   Si       0.51173    0.84664    0.46189    1.000
    N3064    N        0.46322    0.78642    0.39114    1.000
    N3065    N        0.48296    0.85213    0.49278    1.000
    N3066    N        0.46175    0.88336    0.37399    1.000
    Si3067   Si       0.47791    0.97309    0.37243    1.000
    Si3068   Si       0.48092    0.96167    0.44104    1.000
    Si3069   Si       0.49042    0.88824    0.40707    1.000
    N3070    N        0.47279    0.91872    0.43352    1.000
    N3071    N        0.50879    0.97382    0.40658    1.000
    N3072    N        0.49206    0.80956    0.54719    1.000
    Si3073   Si       0.47384    0.84713    0.53436    1.000
    Si3074   Si       0.46820    0.77314    0.55398    1.000
    Si3075   Si       0.50205    0.84301    0.60950    1.000
    N3076    N        0.49583    0.87784    0.55700    1.000
    N3077    N        0.49708    0.93452    0.60232    1.000
    Si3078   Si       0.47951    0.91580    0.56360    1.000
    N3079    N        0.49107    0.93741    0.52547    1.000
    N3080    N        0.49805    0.80000    0.61962    1.000
    N3081    N        0.46548    0.86776    0.69650    1.000
    Si3082   Si       0.48618    0.85748    0.73700    1.000
    N3083    N        0.51001    0.82107    0.74025    1.000
    Si3084   Si       0.46108    0.76267    0.68680    1.000
    N3085    N        0.51854    0.87099    0.63838    1.000
    Si3086   Si       0.49874    0.88503    0.67418    1.000
    N3087    N        0.47333    0.94696    0.73793    1.000
    Si3088   Si       0.50164    0.95081    0.70586    1.000
    Si3089   Si       0.47388    0.94680    0.63562    1.000
    N3090    N        0.47017    0.99196    0.63911    1.000
    N3091    N        0.50207    0.99315    0.70012    1.000
    N3092    N        0.49196    0.92832    0.67199    1.000
    Si3093   Si       0.48501    0.82477    0.82279    1.000
    N3094    N        0.47740    0.86772    0.82453    1.000
    Si3095   Si       0.48394    0.78842    0.75866    1.000
    N3096    N        0.47115    0.80274    0.85896    1.000
    N3097    N        0.46315    0.81197    0.78849    1.000
    N3098    N        0.50994    0.88531    0.76165    1.000
    Si3099   Si       0.49681    0.90088    0.80155    1.000
    Si3100   Si       0.48133    0.96881    0.77660    1.000
    N3101    N        0.47948    0.93961    0.80844    1.000
    Si3102   Si       0.46312    0.94337    0.85084    1.000
    Si3103   Si       0.49726    0.77703    0.88758    1.000
    N3104    N        0.47208    0.79687    0.92013    1.000
    Si3105   Si       0.48439    0.81270    0.95828    1.000
    N3106    N        0.48278    0.77602    0.98315    1.000
    Si3107   Si       0.48703    0.97149    0.97835    1.000
    N3108    N        0.46421    0.90855    0.93732    1.000
    N3109    N        0.50297    0.96686    0.93749    1.000
    Si3110   Si       0.49701    0.92677    0.91937    1.000
    N3111    N        0.49640    0.92536    0.87473    1.000
    N3112    N        0.55637    0.03182    0.08781    1.000
    N3113    N        0.56146    0.04248    0.01477    1.000
    N3114    N        0.53853    0.10025    0.07806    1.000
    Si3115   Si       0.52751    0.01857    0.02908    1.000
    Si3116   Si       0.53584    0.12925    0.04745    1.000
    Si3117   Si       0.52516    0.06075    0.08715    1.000
    N3118    N        0.57846    0.12556    0.03538    1.000
    N3119    N        0.57516    0.22562    0.09234    1.000
    N3120    N        0.53336    0.17155    0.05865    1.000
    Si3121   Si       0.57107    0.18529    0.07429    1.000
    N3122    N        0.52276    0.24022    0.03758    1.000
    N3123    N        0.54999    0.06041    0.17079    1.000
    Si3124   Si       0.56487    0.03323    0.20060    1.000
    N3125    N        0.56534    0.05611    0.23770    1.000
    N3126    N        0.55679    0.13026    0.16225    1.000
    Si3127   Si       0.57716    0.09168    0.15993    1.000
    Si3128   Si       0.55106    0.22630    0.12882    1.000
    N3129    N        0.56799    0.20284    0.16000    1.000
    Si3130   Si       0.56034    0.16404    0.23946    1.000
    N3131    N        0.52356    0.15226    0.22181    1.000
    Si3132   Si       0.55824    0.03097    0.27307    1.000
    N3133    N        0.53866    0.05364    0.35667    1.000
    Si3134   Si       0.55519    0.09466    0.36184    1.000
    N3135    N        0.53177    0.12690    0.34473    1.000
    N3136    N        0.56772    0.10412    0.29288    1.000
    Si3137   Si       0.52065    0.02233    0.33186    1.000
    Si3138   Si       0.55681    0.14249    0.31177    1.000
    N3139    N        0.53912    0.16819    0.28017    1.000
    N3140    N        0.56110    0.23357    0.29399    1.000
    N3141    N        0.54088    0.24437    0.36016    1.000
    Si3142   Si       0.52350    0.21065    0.28712    1.000
    Si3143   Si       0.56798    0.25605    0.33035    1.000
    N3144    N        0.55645    0.02747    0.42813    1.000
    Si3145   Si       0.55871    0.05189    0.46587    1.000
    N3146    N        0.54246    0.09319    0.40450    1.000
    Si3147   Si       0.54527    0.11671    0.43990    1.000
    Si3148   Si       0.52939    0.05004    0.40053    1.000
    N3149    N        0.52416    0.05391    0.49242    1.000
    N3150    N        0.57358    0.09280    0.46151    1.000
    Si3151   Si       0.55225    0.25517    0.40212    1.000
    Si3152   Si       0.53025    0.18370    0.42019    1.000
    N3153    N        0.55089    0.22096    0.42755    1.000
    N3154    N        0.56153    0.15529    0.42837    1.000
    N3155    N        0.54684    0.04044    0.56186    1.000
    Si3156   Si       0.56527    0.11743    0.54305    1.000
    Si3157   Si       0.52532    0.02579    0.52562    1.000
    N3158    N        0.52427    0.10378    0.54135    1.000
    N3159    N        0.55497    0.16150    0.54538    1.000
    N3160    N        0.56689    0.23479    0.54555    1.000
    Si3161   Si       0.57007    0.25127    0.58723    1.000
    N3162    N        0.54887    0.07966    0.63080    1.000
    Si3163   Si       0.56639    0.04221    0.63811    1.000
    N3164    N        0.53171    0.10959    0.71314    1.000
    N3165    N        0.52396    0.05133    0.73146    1.000
    Si3166   Si       0.55214    0.08169    0.73993    1.000
    N3167    N        0.54006    0.00856    0.64306    1.000
    Si3168   Si       0.52654    0.00874    0.73342    1.000
    Si3169   Si       0.52084    0.23729    0.64470    1.000
    Si3170   Si       0.51646    0.15132    0.71850    1.000
    N3171    N        0.55644    0.24690    0.67201    1.000
    N3172    N        0.54928    0.17751    0.70135    1.000
    Si3173   Si       0.52025    0.15597    0.62598    1.000
    N3174    N        0.51890    0.19630    0.63699    1.000
    N3175    N        0.56208    0.14526    0.63225    1.000
    N3176    N        0.53709    0.24550    0.73779    1.000
    N3177    N        0.54212    0.09248    0.78021    1.000
    N3178    N        0.55563    0.02993    0.81365    1.000
    Si3179   Si       0.52829    0.06546    0.81123    1.000
    Si3180   Si       0.56103    0.11862    0.85432    1.000
    N3181    N        0.52399    0.09279    0.84793    1.000
    Si3182   Si       0.54993    0.13512    0.78200    1.000
    N3183    N        0.55673    0.14771    0.82229    1.000
    N3184    N        0.53181    0.21039    0.80099    1.000
    Si3185   Si       0.56181    0.19075    0.82433    1.000
    N3186    N        0.55274    0.20551    0.86482    1.000
    N3187    N        0.51752    0.15750    0.76227    1.000
    Si3188   Si       0.55375    0.05458    0.97177    1.000
    N3189    N        0.55606    0.01873    0.94993    1.000
    N3190    N        0.57944    0.22418    0.98184    1.000
    Si3191   Si       0.57084    0.24788    0.86999    1.000
    Si3192   Si       0.53890    0.23202    0.99687    1.000
    N3193    N        0.52210    0.20261    0.92851    1.000
    N3194    N        0.52813    0.14304    0.88744    1.000
    N3195    N        0.56573    0.24983    0.91276    1.000
    Si3196   Si       0.52336    0.24804    0.92739    1.000
    N3197    N        0.54631    0.13794    0.97029    1.000
    Si3198   Si       0.54543    0.18072    0.89848    1.000
    N3199    N        0.54576    0.35919    0.06490    1.000
    N3200    N        0.53958    0.30615    0.01899    1.000
    Si3201   Si       0.56800    0.32405    0.04945    1.000
    Si3202   Si       0.54240    0.37090    0.10550    1.000
    N3203    N        0.56785    0.29364    0.08017    1.000
    Si3204   Si       0.54033    0.45278    0.05464    1.000
    N3205    N        0.54280    0.47806    0.01932    1.000
    N3206    N        0.54358    0.41329    0.11730    1.000
    N3207    N        0.52355    0.47916    0.08523    1.000
    Si3208   Si       0.58025    0.50305    0.01855    1.000
    Si3209   Si       0.55336    0.30362    0.12076    1.000
    N3210    N        0.57140    0.26184    0.20650    1.000
    N3211    N        0.57383    0.34502    0.12414    1.000
    Si3212   Si       0.53879    0.27716    0.18244    1.000
    Si3213   Si       0.54436    0.34702    0.22779    1.000
    N3214    N        0.53769    0.32083    0.19137    1.000
    N3215    N        0.55611    0.26661    0.14338    1.000
    N3216    N        0.57627    0.49900    0.18466    1.000
    Si3217   Si       0.53592    0.41321    0.21133    1.000
    N3218    N        0.56329    0.38666    0.23219    1.000
    N3219    N        0.57153    0.46876    0.12988    1.000
    N3220    N        0.53462    0.43778    0.17537    1.000
    Si3221   Si       0.52661    0.45856    0.12540    1.000
    N3222    N        0.51798    0.49922    0.14351    1.000
    Si3223   Si       0.54743    0.36995    0.34448    1.000
    N3224    N        0.56875    0.36144    0.30674    1.000
    Si3225   Si       0.55811    0.32068    0.29255    1.000
    N3226    N        0.56990    0.31944    0.25090    1.000
    Si3227   Si       0.53677    0.46303    0.27188    1.000
    N3228    N        0.53881    0.41081    0.35238    1.000
    N3229    N        0.56899    0.43918    0.28234    1.000
    Si3230   Si       0.57409    0.43048    0.37209    1.000
    Si3231   Si       0.57832    0.50310    0.36963    1.000
    N3232    N        0.53912    0.49862    0.24600    1.000
    N3233    N        0.52937    0.36210    0.40883    1.000
    Si3234   Si       0.54480    0.32708    0.42808    1.000
    N3235    N        0.53213    0.29332    0.40677    1.000
    N3236    N        0.55295    0.26941    0.48378    1.000
    N3237    N        0.51860    0.32582    0.46474    1.000
    Si3238   Si       0.53153    0.43668    0.48369    1.000
    Si3239   Si       0.53745    0.39917    0.42614    1.000
    N3240    N        0.52734    0.39773    0.46758    1.000
    N3241    N        0.57859    0.47003    0.39453    1.000
    N3242    N        0.56125    0.46111    0.46495    1.000
    Si3243   Si       0.56786    0.49860    0.48354    1.000
    N3244    N        0.53759    0.35677    0.52036    1.000
    Si3245   Si       0.53561    0.32106    0.54319    1.000
    N3246    N        0.57366    0.30084    0.54078    1.000
    N3247    N        0.53210    0.25957    0.60925    1.000
    Si3248   Si       0.52335    0.37306    0.59347    1.000
    N3249    N        0.56120    0.38518    0.57477    1.000
    Si3250   Si       0.56229    0.39275    0.53244    1.000
    N3251    N        0.53645    0.42613    0.52648    1.000
    N3252    N        0.53950    0.47255    0.57864    1.000
    Si3253   Si       0.57439    0.49441    0.56605    1.000
    Si3254   Si       0.53316    0.47670    0.62231    1.000
    Si3255   Si       0.56586    0.28645    0.68360    1.000
    N3256    N        0.55162    0.32674    0.67740    1.000
    N3257    N        0.52951    0.37363    0.63722    1.000
    N3258    N        0.57411    0.47491    0.69696    1.000
    N3259    N        0.55585    0.44135    0.63089    1.000
    Si3260   Si       0.57339    0.40431    0.72990    1.000
    Si3261   Si       0.53305    0.41345    0.65434    1.000
    Si3262   Si       0.53952    0.45461    0.71003    1.000
    N3263    N        0.55019    0.41188    0.69258    1.000
    N3264    N        0.54784    0.33497    0.80865    1.000
    Si3265   Si       0.53350    0.36041    0.77715    1.000
    Si3266   Si       0.55057    0.29367    0.80345    1.000
    N3267    N        0.54738    0.26942    0.83955    1.000
    Si3268   Si       0.56976    0.35210    0.84096    1.000
    N3269    N        0.56279    0.36409    0.74471    1.000
    N3270    N        0.55238    0.45295    0.81747    1.000
    Si3271   Si       0.54846    0.42190    0.85032    1.000
    Si3272   Si       0.52653    0.43990    0.78567    1.000
    N3273    N        0.55077    0.43867    0.74905    1.000
    Si3274   Si       0.53749    0.30441    0.97441    1.000
    Si3275   Si       0.55401    0.34286    0.92565    1.000
    N3276    N        0.56525    0.34274    0.88546    1.000
    N3277    N        0.57411    0.31624    0.95588    1.000
    N3278    N        0.52855    0.49088    0.87333    1.000
    N3279    N        0.52847    0.46611    0.93549    1.000
    Si3280   Si       0.52986    0.48653    0.97734    1.000
    N3281    N        0.56707    0.43212    0.88910    1.000
    N3282    N        0.55571    0.38350    0.94113    1.000
    Si3283   Si       0.55524    0.47202    0.90084    1.000
    N3284    N        0.56363    0.54608    0.02307    1.000
    Si3285   Si       0.54940    0.57118    0.05443    1.000
    N3286    N        0.53779    0.60725    0.03717    1.000
    N3287    N        0.52187    0.55212    0.08006    1.000
    Si3288   Si       0.55965    0.64468    0.02573    1.000
    N3289    N        0.55265    0.70329    0.10354    1.000
    N3290    N        0.55098    0.68294    0.04457    1.000
    N3291    N        0.52835    0.74943    0.07100    1.000
    Si3292   Si       0.52399    0.70420    0.06850    1.000
    N3293    N        0.54293    0.74991    0.00180    1.000
    Si3294   Si       0.56954    0.74355    0.08925    1.000
    Si3295   Si       0.57157    0.61505    0.17009    1.000
    Si3296   Si       0.52611    0.60858    0.23424    1.000
    N3297    N        0.55135    0.55736    0.14766    1.000
    N3298    N        0.53190    0.60667    0.18708    1.000
    Si3299   Si       0.56086    0.51240    0.14689    1.000
    Si3300   Si       0.51932    0.56684    0.17224    1.000
    Si3301   Si       0.54856    0.75881    0.16506    1.000
    N3302    N        0.57228    0.65919    0.15632    1.000
    N3303    N        0.54821    0.70647    0.23208    1.000
    N3304    N        0.52971    0.71907    0.16742    1.000
    Si3305   Si       0.53919    0.68475    0.14217    1.000
    Si3306   Si       0.53339    0.52422    0.32092    1.000
    N3307    N        0.53526    0.60131    0.36229    1.000
    N3308    N        0.54037    0.52250    0.36496    1.000
    N3309    N        0.56972    0.53466    0.29776    1.000
    Si3310   Si       0.57754    0.55781    0.26092    1.000
    N3311    N        0.53907    0.56844    0.24487    1.000
    N3312    N        0.54754    0.63554    0.25823    1.000
    Si3313   Si       0.54329    0.64007    0.33924    1.000
    Si3314   Si       0.54973    0.67898    0.26482    1.000
    N3315    N        0.56090    0.74007    0.33210    1.000
    Si3316   Si       0.52962    0.71107    0.33541    1.000
    N3317    N        0.54532    0.67709    0.35880    1.000
    N3318    N        0.52098    0.69066    0.29729    1.000
    Si3319   Si       0.55082    0.59716    0.40197    1.000
    N3320    N        0.53166    0.59563    0.48957    1.000
    N3321    N        0.53267    0.52436    0.48979    1.000
    N3322    N        0.52539    0.56912    0.42214    1.000
    N3323    N        0.56429    0.70042    0.43075    1.000
    Si3324   Si       0.57302    0.68080    0.47102    1.000
    N3325    N        0.52764    0.73237    0.47697    1.000
    N3326    N        0.53208    0.66761    0.48300    1.000
    Si3327   Si       0.52448    0.71695    0.43739    1.000
    N3328    N        0.54078    0.63747    0.41728    1.000
    Si3329   Si       0.56418    0.67109    0.39717    1.000
    N3330    N        0.53854    0.59145    0.55539    1.000
    Si3331   Si       0.53551    0.56005    0.51638    1.000
    Si3332   Si       0.54828    0.54536    0.61788    1.000
    Si3333   Si       0.53676    0.62492    0.52173    1.000
    N3334    N        0.56619    0.53469    0.57857    1.000
    N3335    N        0.54374    0.69666    0.54360    1.000
    Si3336   Si       0.52919    0.71784    0.57729    1.000
    N3337    N        0.53330    0.72422    0.62252    1.000
    Si3338   Si       0.51904    0.70013    0.50699    1.000
    N3339    N        0.56866    0.58315    0.62301    1.000
    Si3340   Si       0.54277    0.61812    0.62823    1.000
    Si3341   Si       0.55606    0.62105    0.70179    1.000
    N3342    N        0.53387    0.52469    0.71871    1.000
    Si3343   Si       0.56444    0.51688    0.68656    1.000
    N3344    N        0.52762    0.61345    0.67021    1.000
    N3345    N        0.57092    0.58619    0.72007    1.000
    N3346    N        0.54973    0.51274    0.64395    1.000
    Si3347   Si       0.54894    0.55594    0.74355    1.000
    N3348    N        0.55052    0.66058    0.62591    1.000
    Si3349   Si       0.53242    0.68274    0.72534    1.000
    Si3350   Si       0.57014    0.68028    0.65873    1.000
    Si3351   Si       0.53741    0.74560    0.69346    1.000
    N3352    N        0.54695    0.70087    0.69019    1.000
    N3353    N        0.53782    0.64122    0.73561    1.000
    Si3354   Si       0.56208    0.62391    0.82258    1.000
    Si3355   Si       0.53621    0.51575    0.83860    1.000
    N3356    N        0.51901    0.57627    0.76308    1.000
    N3357    N        0.56149    0.58059    0.81067    1.000
    N3358    N        0.52174    0.55601    0.85315    1.000
    N3359    N        0.52083    0.63254    0.80598    1.000
    Si3360   Si       0.51702    0.56658    0.80629    1.000
    N3361    N        0.56517    0.63853    0.86307    1.000
    N3362    N        0.54761    0.69725    0.82035    1.000
    Si3363   Si       0.54510    0.74444    0.76642    1.000
    N3364    N        0.55677    0.70327    0.75579    1.000
    Si3365   Si       0.57652    0.72971    0.82965    1.000
    Si3366   Si       0.52628    0.57089    0.89248    1.000
    N3367    N        0.56773    0.56674    0.90113    1.000
    Si3368   Si       0.55980    0.55285    0.98171    1.000
    N3369    N        0.52468    0.57616    0.97414    1.000
    N3370    N        0.56654    0.51080    0.97109    1.000
    N3371    N        0.54545    0.64293    0.98392    1.000
    Si3372   Si       0.52911    0.64991    0.88891    1.000
    N3373    N        0.56380    0.73600    0.93333    1.000
    Si3374   Si       0.52576    0.71342    0.93051    1.000
    Si3375   Si       0.57490    0.75602    0.97369    1.000
    N3376    N        0.54801    0.67461    0.91975    1.000
    Si3377   Si       0.57207    0.65277    0.95077    1.000
    N3378    N        0.57879    0.73220    0.87141    1.000
    N3379    N        0.55410    0.81316    0.02258    1.000
    Si3380   Si       0.55181    0.86384    0.08178    1.000
    N3381    N        0.55937    0.82976    0.10999    1.000
    Si3382   Si       0.54707    0.77333    0.03871    1.000
    N3383    N        0.54101    0.89999    0.02747    1.000
    N3384    N        0.54729    0.90007    0.10547    1.000
    N3385    N        0.54120    0.97979    0.04492    1.000
    N3386    N        0.53386    0.96965    0.10861    1.000
    Si3387   Si       0.54836    0.94638    0.01413    1.000
    Si3388   Si       0.56735    0.99064    0.08012    1.000
    N3389    N        0.54115    0.85548    0.21580    1.000
    N3390    N        0.53432    0.78648    0.23615    1.000
    N3391    N        0.53238    0.80053    0.16780    1.000
    Si3392   Si       0.52439    0.81733    0.20650    1.000
    Si3393   Si       0.52384    0.82198    0.13138    1.000
    N3394    N        0.57509    0.76410    0.12747    1.000
    N3395    N        0.57144    0.93565    0.15912    1.000
    Si3396   Si       0.53984    0.96648    0.15155    1.000
    N3397    N        0.54957    0.92373    0.22269    1.000
    N3398    N        0.54711    0.99363    0.18585    1.000
    Si3399   Si       0.52003    0.89266    0.21929    1.000
    Si3400   Si       0.54198    0.77759    0.32244    1.000
    N3401    N        0.52953    0.79502    0.36041    1.000
    N3402    N        0.57008    0.87072    0.27528    1.000
    N3403    N        0.56656    0.80311    0.29805    1.000
    Si3404   Si       0.57351    0.78955    0.25517    1.000
    N3405    N        0.56960    0.84955    0.34729    1.000
    Si3406   Si       0.54963    0.88645    0.35652    1.000
    Si3407   Si       0.53523    0.89494    0.28897    1.000
    N3408    N        0.55036    0.99097    0.33495    1.000
    Si3409   Si       0.54029    0.94816    0.33060    1.000
    N3410    N        0.53994    0.93769    0.28894    1.000
    N3411    N        0.56842    0.92671    0.35641    1.000
    Si3412   Si       0.54058    0.95729    0.25050    1.000
    N3413    N        0.56809    0.99144    0.25136    1.000
    Si3414   Si       0.56616    0.81622    0.37327    1.000
    Si3415   Si       0.53596    0.76939    0.45544    1.000
    N3416    N        0.53242    0.80874    0.47183    1.000
    N3417    N        0.54466    0.87800    0.46217    1.000
    Si3418   Si       0.56142    0.87498    0.42292    1.000
    N3419    N        0.57298    0.83166    0.41261    1.000
    N3420    N        0.53173    0.88785    0.39444    1.000
    N3421    N        0.57723    0.76530    0.44136    1.000
    Si3422   Si       0.54288    0.98289    0.43148    1.000
    N3423    N        0.52447    0.96119    0.46421    1.000
    N3424    N        0.55837    0.78339    0.53288    1.000
    N3425    N        0.55790    0.85702    0.52207    1.000
    Si3426   Si       0.53972    0.86948    0.55929    1.000
    N3427    N        0.54077    0.83422    0.58573    1.000
    N3428    N        0.55299    0.77539    0.60050    1.000
    Si3429   Si       0.52799    0.79052    0.56438    1.000
    Si3430   Si       0.56306    0.81728    0.50514    1.000
    Si3431   Si       0.57574    0.81393    0.60289    1.000
    N3432    N        0.55505    0.90301    0.58405    1.000
    N3433    N        0.55560    0.92494    0.52074    1.000
    N3434    N        0.54844    0.99063    0.51714    1.000
    Si3435   Si       0.52690    0.95321    0.50693    1.000
    N3436    N        0.57151    0.96966    0.58384    1.000
    Si3437   Si       0.57553    0.93249    0.55993    1.000
    Si3438   Si       0.53370    0.91120    0.61950    1.000
    Si3439   Si       0.56857    0.89050    0.49528    1.000
    Si3440   Si       0.52355    0.76727    0.63342    1.000
    N3441    N        0.56140    0.76350    0.66140    1.000
    N3442    N        0.55028    0.76697    0.72928    1.000
    Si3443   Si       0.55338    0.81181    0.73647    1.000
    Si3444   Si       0.55956    0.85451    0.67575    1.000
    N3445    N        0.53029    0.87082    0.70210    1.000
    N3446    N        0.56687    0.00008    0.71950    1.000
    N3447    N        0.53947    0.93658    0.72025    1.000
    Si3448   Si       0.57205    0.95971    0.73128    1.000
    Si3449   Si       0.56602    0.97643    0.62628    1.000
    Si3450   Si       0.54363    0.89560    0.73534    1.000
    N3451    N        0.55571    0.93981    0.64356    1.000
    Si3452   Si       0.56642    0.80349    0.81071    1.000
    N3453    N        0.52701    0.81719    0.82334    1.000
    Si3454   Si       0.54631    0.82512    0.86478    1.000
    N3455    N        0.57335    0.82333    0.77350    1.000
    N3456    N        0.56720    0.76191    0.80297    1.000
    N3457    N        0.53516    0.90574    0.82241    1.000
    N3458    N        0.56466    0.96525    0.83594    1.000
    Si3459   Si       0.55645    0.98865    0.79840    1.000
    Si3460   Si       0.57417    0.92255    0.83269    1.000
    Si3461   Si       0.52587    0.89654    0.86446    1.000
    N3462    N        0.52023    0.98770    0.77059    1.000
    Si3463   Si       0.57094    0.76493    0.89843    1.000
    N3464    N        0.53790    0.79010    0.88523    1.000
    Si3465   Si       0.55730    0.82886    0.98329    1.000
    Si3466   Si       0.53505    0.85901    0.92189    1.000
    N3467    N        0.52211    0.85652    0.88072    1.000
    N3468    N        0.52353    0.83397    0.95694    1.000
    N3469    N        0.57472    0.84631    0.91216    1.000
    Si3470   Si       0.56700    0.93070    0.93301    1.000
    N3471    N        0.56861    0.90428    0.87256    1.000
    N3472    N        0.57095    0.97014    0.91031    1.000
    Si3473   Si       0.53379    0.99436    0.92166    1.000
    N3474    N        0.57491    0.95690    0.97420    1.000
    N3475    N        0.53226    0.90269    0.92811    1.000
    N3476    N        0.60943    0.06574    0.06255    1.000
    Si3477   Si       0.59323    0.04810    0.09932    1.000
    Si3478   Si       0.60302    0.03775    0.03012    1.000
    N3479    N        0.63083    0.12611    0.07187    1.000
    Si3480   Si       0.58573    0.11361    0.08360    1.000
    N3481    N        0.62069    0.01887    0.11580    1.000
    N3482    N        0.58912    0.08653    0.11938    1.000
    Si3483   Si       0.60848    0.22017    0.01426    1.000
    N3484    N        0.60273    0.18806    0.04294    1.000
    Si3485   Si       0.62153    0.14988    0.03425    1.000
    N3486    N        0.58120    0.15368    0.10298    1.000
    N3487    N        0.60777    0.25835    0.03622    1.000
    Si3488   Si       0.59416    0.26010    0.07721    1.000
    N3489    N        0.61506    0.09089    0.18351    1.000
    N3490    N        0.60650    0.02136    0.20035    1.000
    Si3491   Si       0.62171    0.13152    0.20063    1.000
    Si3492   Si       0.63438    0.05297    0.19104    1.000
    N3493    N        0.58856    0.13252    0.23096    1.000
    Si3494   Si       0.58161    0.16303    0.14738    1.000
    N3495    N        0.63244    0.21987    0.18886    1.000
    Si3496   Si       0.58541    0.22028    0.19556    1.000
    N3497    N        0.62002    0.16132    0.16780    1.000
    N3498    N        0.58269    0.20048    0.23497    1.000
    N3499    N        0.59785    0.09350    0.35167    1.000
    Si3500   Si       0.60467    0.08156    0.30848    1.000
    N3501    N        0.62310    0.08477    0.26671    1.000
    N3502    N        0.58858    0.03545    0.30273    1.000
    Si3503   Si       0.62589    0.05898    0.36446    1.000
    Si3504   Si       0.58235    0.09416    0.25153    1.000
    Si3505   Si       0.62084    0.13290    0.35817    1.000
    Si3506   Si       0.63080    0.02153    0.29992    1.000
    N3507    N        0.59139    0.15956    0.33238    1.000
    Si3508   Si       0.61599    0.19773    0.33113    1.000
    N3509    N        0.60623    0.23897    0.34464    1.000
    Si3510   Si       0.59435    0.22455    0.26952    1.000
    N3511    N        0.62757    0.20373    0.29016    1.000
    N3512    N        0.60179    0.02455    0.37610    1.000
    Si3513   Si       0.60761    0.11229    0.47784    1.000
    N3514    N        0.59268    0.03019    0.48359    1.000
    Si3515   Si       0.62965    0.04838    0.46879    1.000
    N3516    N        0.63213    0.02257    0.43383    1.000
    Si3517   Si       0.59688    0.00889    0.41609    1.000
    N3518    N        0.62873    0.13295    0.40198    1.000
    N3519    N        0.61546    0.20163    0.41970    1.000
    N3520    N        0.61205    0.15414    0.47157    1.000
    Si3521   Si       0.60524    0.15984    0.42802    1.000
    N3522    N        0.59983    0.22336    0.48592    1.000
    Si3523   Si       0.58917    0.22873    0.44369    1.000
    Si3524   Si       0.62353    0.18937    0.49580    1.000
    N3525    N        0.60180    0.10896    0.52086    1.000
    Si3526   Si       0.62190    0.09733    0.55743    1.000
    N3527    N        0.59376    0.02630    0.60697    1.000
    N3528    N        0.58350    0.10394    0.57866    1.000
    Si3529   Si       0.57678    0.01044    0.56868    1.000
    N3530    N        0.61813    0.18073    0.53840    1.000
    N3531    N        0.58949    0.21125    0.59753    1.000
    Si3532   Si       0.58085    0.19426    0.55827    1.000
    Si3533   Si       0.58346    0.25806    0.51197    1.000
    Si3534   Si       0.57828    0.10785    0.61980    1.000
    Si3535   Si       0.60799    0.08413    0.67993    1.000
    N3536    N        0.61628    0.09986    0.63799    1.000
    N3537    N        0.59698    0.07757    0.73487    1.000
    Si3538   Si       0.60792    0.11954    0.73352    1.000
    N3539    N        0.59082    0.04501    0.67258    1.000
    N3540    N        0.59764    0.12616    0.69270    1.000
    N3541    N        0.63438    0.01032    0.71193    1.000
    Si3542   Si       0.57304    0.21441    0.69414    1.000
    Si3543   Si       0.57720    0.15727    0.67230    1.000
    N3544    N        0.59947    0.22472    0.72675    1.000
    Si3545   Si       0.62010    0.20657    0.62820    1.000
    N3546    N        0.60021    0.19340    0.66489    1.000
    Si3547   Si       0.57766    0.25790    0.74708    1.000
    Si3548   Si       0.59813    0.03984    0.82581    1.000
    N3549    N        0.61753    0.03239    0.78760    1.000
    N3550    N        0.59237    0.08318    0.83723    1.000
    N3551    N        0.60430    0.01579    0.86288    1.000
    Si3552   Si       0.62122    0.09932    0.86733    1.000
    Si3553   Si       0.62324    0.04398    0.74470    1.000
    N3554    N        0.58880    0.14297    0.76465    1.000
    Si3555   Si       0.61886    0.16810    0.78709    1.000
    N3556    N        0.60397    0.19924    0.81681    1.000
    N3557    N        0.61445    0.24823    0.86580    1.000
    Si3558   Si       0.63279    0.21389    0.84619    1.000
    N3559    N        0.62239    0.07185    0.90131    1.000
    N3560    N        0.62191    0.02278    0.94569    1.000
    Si3561   Si       0.61877    0.06603    0.94488    1.000
    N3562    N        0.58633    0.08252    0.96704    1.000
    Si3563   Si       0.57982    0.12067    0.98955    1.000
    N3564    N        0.59553    0.13210    0.87770    1.000
    Si3565   Si       0.58824    0.22113    0.93854    1.000
    N3566    N        0.58384    0.18197    0.92095    1.000
    Si3567   Si       0.61605    0.16242    0.90120    1.000
    N3568    N        0.62032    0.13915    0.99183    1.000
    N3569    N        0.62854    0.23774    0.93400    1.000
    N3570    N        0.60472    0.32929    0.02825    1.000
    Si3571   Si       0.62002    0.36581    0.01197    1.000
    Si3572   Si       0.62920    0.29258    0.02152    1.000
    N3573    N        0.63053    0.26313    0.10101    1.000
    Si3574   Si       0.61599    0.36255    0.12079    1.000
    N3575    N        0.63810    0.47879    0.10484    1.000
    N3576    N        0.59504    0.39931    0.02244    1.000
    Si3577   Si       0.59746    0.48560    0.09348    1.000
    N3578    N        0.60993    0.39661    0.09707    1.000
    Si3579   Si       0.61265    0.41714    0.05615    1.000
    N3580    N        0.58153    0.44644    0.07106    1.000
    Si3581   Si       0.58453    0.42627    0.11687    1.000
    N3582    N        0.61374    0.48267    0.99773    1.000
    N3583    N        0.62321    0.31135    0.20843    1.000
    Si3584   Si       0.59579    0.28863    0.23282    1.000
    N3585    N        0.63571    0.36731    0.15985    1.000
    Si3586   Si       0.57618    0.45500    0.17385    1.000
    N3587    N        0.58172    0.44869    0.22075    1.000
    Si3588   Si       0.63510    0.40670    0.18103    1.000
    N3589    N        0.63296    0.40681    0.22418    1.000
    Si3590   Si       0.57844    0.49264    0.22657    1.000
    N3591    N        0.60280    0.42398    0.15886    1.000
    Si3592   Si       0.60272    0.32499    0.34571    1.000
    N3593    N        0.63243    0.35068    0.32470    1.000
    N3594    N        0.61364    0.26300    0.26168    1.000
    N3595    N        0.58515    0.36053    0.36765    1.000
    Si3596   Si       0.60527    0.38454    0.31646    1.000
    N3597    N        0.57938    0.29730    0.32084    1.000
    Si3598   Si       0.60414    0.44835    0.30706    1.000
    N3599    N        0.60717    0.42036    0.34465    1.000
    N3600    N        0.62214    0.40922    0.28365    1.000
    N3601    N        0.62554    0.47984    0.27965    1.000
    N3602    N        0.58901    0.48352    0.33236    1.000
    Si3603   Si       0.59417    0.41744    0.24812    1.000
    N3604    N        0.62257    0.30213    0.37595    1.000
    Si3605   Si       0.61131    0.30091    0.41617    1.000
    N3606    N        0.58716    0.33736    0.42890    1.000
    N3607    N        0.59188    0.26396    0.41944    1.000
    Si3608   Si       0.59890    0.37373    0.40755    1.000
    Si3609   Si       0.58870    0.45095    0.43148    1.000
    N3610    N        0.62824    0.46507    0.44134    1.000
    N3611    N        0.57772    0.41066    0.41613    1.000
    N3612    N        0.61689    0.34567    0.56107    1.000
    Si3613   Si       0.61535    0.30177    0.55733    1.000
    N3614    N        0.60489    0.27794    0.59343    1.000
    Si3615   Si       0.60143    0.37500    0.58930    1.000
    N3616    N        0.62552    0.27196    0.52195    1.000
    Si3617   Si       0.63298    0.36792    0.52903    1.000
    N3618    N        0.60498    0.40247    0.52336    1.000
    N3619    N        0.61321    0.41680    0.59217    1.000
    N3620    N        0.60743    0.48592    0.59402    1.000
    N3621    N        0.58392    0.49041    0.52404    1.000
    Si3622   Si       0.59734    0.44837    0.61702    1.000
    Si3623   Si       0.63141    0.42413    0.55121    1.000
    Si3624   Si       0.62659    0.27888    0.63038    1.000
    Si3625   Si       0.59576    0.33370    0.73440    1.000
    N3626    N        0.60195    0.29620    0.66057    1.000
    N3627    N        0.61171    0.35310    0.69936    1.000
    Si3628   Si       0.59281    0.33716    0.66328    1.000
    N3629    N        0.60902    0.35616    0.62852    1.000
    N3630    N        0.58204    0.29338    0.72311    1.000
    Si3631   Si       0.61115    0.45370    0.69372    1.000
    N3632    N        0.61334    0.41823    0.72009    1.000
    N3633    N        0.62256    0.44682    0.65348    1.000
    N3634    N        0.62334    0.33288    0.76895    1.000
    N3635    N        0.61177    0.33801    0.84472    1.000
    Si3636   Si       0.62813    0.29219    0.78313    1.000
    N3637    N        0.58682    0.27718    0.78606    1.000
    Si3638   Si       0.61820    0.40933    0.82652    1.000
    N3639    N        0.60638    0.47614    0.77128    1.000
    N3640    N        0.61842    0.45385    0.83228    1.000
    Si3641   Si       0.58733    0.47558    0.81126    1.000
    Si3642   Si       0.62776    0.44041    0.75789    1.000
    N3643    N        0.62657    0.40415    0.78267    1.000
    N3644    N        0.57908    0.39311    0.83677    1.000
    N3645    N        0.62719    0.30874    0.91219    1.000
    Si3646   Si       0.60904    0.34167    0.88901    1.000
    Si3647   Si       0.61811    0.31548    0.95520    1.000
    Si3648   Si       0.63079    0.26451    0.90070    1.000
    N3649    N        0.63214    0.35381    0.97186    1.000
    N3650    N        0.61473    0.38194    0.90470    1.000
    N3651    N        0.60618    0.43986    0.94526    1.000
    Si3652   Si       0.58484    0.41009    0.92232    1.000
    N3653    N        0.58917    0.49595    0.91062    1.000
    Si3654   Si       0.60150    0.48560    0.95299    1.000
    Si3655   Si       0.61746    0.54641    0.06704    1.000
    Si3656   Si       0.61356    0.61715    0.07024    1.000
    N3657    N        0.58866    0.57887    0.07713    1.000
    N3658    N        0.59329    0.52452    0.11508    1.000
    Si3659   Si       0.58198    0.56588    0.12007    1.000
    N3660    N        0.63475    0.56091    0.03088    1.000
    N3661    N        0.60159    0.50839    0.05637    1.000
    N3662    N        0.60257    0.63750    0.03311    1.000
    Si3663   Si       0.58076    0.68400    0.07679    1.000
    N3664    N        0.59602    0.64964    0.09387    1.000
    N3665    N        0.60529    0.71729    0.06767    1.000
    Si3666   Si       0.62736    0.65165    0.99954    1.000
    N3667    N        0.60484    0.60724    0.19828    1.000
    N3668    N        0.60021    0.60149    0.13781    1.000
    N3669    N        0.62708    0.54464    0.16381    1.000
    Si3670   Si       0.63050    0.60359    0.23302    1.000
    N3671    N        0.59864    0.52988    0.23704    1.000
    Si3672   Si       0.62803    0.53308    0.20631    1.000
    Si3673   Si       0.63212    0.58552    0.16873    1.000
    Si3674   Si       0.60952    0.64568    0.13557    1.000
    Si3675   Si       0.61014    0.75828    0.15670    1.000
    Si3676   Si       0.58515    0.72877    0.22251    1.000
    N3677    N        0.58415    0.75601    0.19016    1.000
    N3678    N        0.61573    0.69613    0.20947    1.000
    N3679    N        0.60256    0.59298    0.26716    1.000
    Si3680   Si       0.62002    0.62887    0.35150    1.000
    Si3681   Si       0.58681    0.63032    0.28116    1.000
    N3682    N        0.58370    0.63007    0.32417    1.000
    Si3683   Si       0.60622    0.51304    0.30312    1.000
    N3684    N        0.59326    0.67222    0.27394    1.000
    Si3685   Si       0.60105    0.74782    0.34873    1.000
    N3686    N        0.59619    0.75263    0.25760    1.000
    Si3687   Si       0.63468    0.74670    0.27593    1.000
    Si3688   Si       0.62779    0.67956    0.24771    1.000
    N3689    N        0.63269    0.74253    0.31884    1.000
    Si3690   Si       0.60996    0.54884    0.48973    1.000
    N3691    N        0.60862    0.53141    0.38033    1.000
    N3692    N        0.59477    0.52458    0.45621    1.000
    Si3693   Si       0.60483    0.55016    0.42097    1.000
    N3694    N        0.59119    0.59041    0.41255    1.000
    N3695    N        0.62395    0.58741    0.47366    1.000
    Si3696   Si       0.61054    0.62737    0.42230    1.000
    Si3697   Si       0.60779    0.62441    0.49430    1.000
    Si3698   Si       0.59633    0.72922    0.42826    1.000
    Si3699   Si       0.63378    0.68667    0.37671    1.000
    N3700    N        0.63193    0.72334    0.45339    1.000
    N3701    N        0.59486    0.64430    0.45852    1.000
    N3702    N        0.60511    0.65292    0.38731    1.000
    N3703    N        0.60800    0.72104    0.38324    1.000
    N3704    N        0.61138    0.59490    0.57349    1.000
    Si3705   Si       0.61150    0.58616    0.61701    1.000
    N3706    N        0.58007    0.55836    0.51933    1.000
    Si3707   Si       0.63280    0.63256    0.56204    1.000
    Si3708   Si       0.57811    0.57253    0.55956    1.000
    N3709    N        0.61568    0.67172    0.56914    1.000
    Si3710   Si       0.62405    0.70417    0.59671    1.000
    N3711    N        0.59273    0.73255    0.58062    1.000
    N3712    N        0.59447    0.70145    0.50329    1.000
    Si3713   Si       0.58274    0.67902    0.54009    1.000
    N3714    N        0.62606    0.75921    0.52647    1.000
    Si3715   Si       0.62780    0.72569    0.49646    1.000
    N3716    N        0.57837    0.63749    0.52514    1.000
    Si3717   Si       0.61676    0.51024    0.73964    1.000
    N3718    N        0.62521    0.54488    0.62499    1.000
    N3719    N        0.60332    0.53128    0.69880    1.000
    Si3720   Si       0.62487    0.62747    0.67552    1.000
    N3721    N        0.62785    0.62387    0.63162    1.000
    Si3722   Si       0.61292    0.56916    0.72274    1.000
    Si3723   Si       0.63027    0.54507    0.66852    1.000
    N3724    N        0.62949    0.58561    0.68503    1.000
    Si3725   Si       0.57901    0.74480    0.62192    1.000
    N3726    N        0.58631    0.64575    0.68302    1.000
    N3727    N        0.60177    0.70679    0.64066    1.000
    Si3728   Si       0.58979    0.55002    0.80239    1.000
    N3729    N        0.58757    0.53968    0.75973    1.000
    N3730    N        0.62877    0.60094    0.75152    1.000
    N3731    N        0.57785    0.51513    0.82541    1.000
    N3732    N        0.63111    0.56408    0.81006    1.000
    Si3733   Si       0.62611    0.63657    0.77526    1.000
    N3734    N        0.60788    0.71040    0.80600    1.000
    N3735    N        0.58975    0.64372    0.79801    1.000
    Si3736   Si       0.57829    0.68443    0.78719    1.000
    N3737    N        0.59688    0.57298    0.96909    1.000
    Si3738   Si       0.59764    0.58104    0.92588    1.000
    N3739    N        0.59283    0.62362    0.92524    1.000
    N3740    N        0.63205    0.55652    0.91224    1.000
    Si3741   Si       0.63010    0.51285    0.90225    1.000
    Si3742   Si       0.63419    0.57658    0.99229    1.000
    N3743    N        0.61342    0.74367    0.99053    1.000
    N3744    N        0.60476    0.67532    0.97089    1.000
    Si3745   Si       0.63299    0.70842    0.97604    1.000
    N3746    N        0.61394    0.68107    0.89726    1.000
    Si3747   Si       0.60208    0.63946    0.88721    1.000
    Si3748   Si       0.57780    0.70442    0.90229    1.000
    Si3749   Si       0.62163    0.86652    0.08452    1.000
    Si3750   Si       0.59298    0.81748    0.04594    1.000
    N3751    N        0.58843    0.86138    0.05704    1.000
    Si3752   Si       0.59170    0.80121    0.11027    1.000
    N3753    N        0.62748    0.82483    0.09147    1.000
    N3754    N        0.63068    0.81048    0.02673    1.000
    N3755    N        0.58192    0.78094    0.06856    1.000
    N3756    N        0.59448    0.93169    0.02786    1.000
    Si3757   Si       0.61627    0.95983    0.05240    1.000
    N3758    N        0.59533    0.95903    0.09587    1.000
    N3759    N        0.60186    0.00083    0.05387    1.000
    N3760    N        0.61416    0.89380    0.11531    1.000
    Si3761   Si       0.58252    0.92306    0.11784    1.000
    Si3762   Si       0.58031    0.88950    0.02360    1.000
    Si3763   Si       0.63526    0.97215    0.11138    1.000
    N3764    N        0.59889    0.82145    0.23941    1.000
    Si3765   Si       0.58105    0.86163    0.23352    1.000
    N3766    N        0.62482    0.79692    0.14421    1.000
    N3767    N        0.61704    0.95369    0.21078    1.000
    Si3768   Si       0.58568    0.92666    0.19730    1.000
    Si3769   Si       0.60841    0.99075    0.23305    1.000
    N3770    N        0.60504    0.88591    0.20771    1.000
    Si3771   Si       0.58609    0.84092    0.30719    1.000
    N3772    N        0.60019    0.78915    0.36266    1.000
    N3773    N        0.62912    0.83846    0.29919    1.000
    N3774    N        0.62728    0.99067    0.32776    1.000
    Si3775   Si       0.58867    0.00820    0.33842    1.000
    N3776    N        0.59809    0.82079    0.47969    1.000
    Si3777   Si       0.59233    0.80425    0.43899    1.000
    Si3778   Si       0.63226    0.84380    0.49203    1.000
    N3779    N        0.63220    0.80101    0.42057    1.000
    N3780    N        0.63327    0.94794    0.38025    1.000
    Si3781   Si       0.63176    0.89679    0.44927    1.000
    N3782    N        0.59678    0.90177    0.42106    1.000
    N3783    N        0.61164    0.89031    0.48888    1.000
    N3784    N        0.62038    0.96473    0.48928    1.000
    Si3785   Si       0.59328    0.93704    0.39268    1.000
    N3786    N        0.58001    0.96873    0.41705    1.000
    N3787    N        0.60322    0.80828    0.56970    1.000
    Si3788   Si       0.59433    0.76854    0.55381    1.000
    N3789    N        0.62540    0.86330    0.60173    1.000
    Si3790   Si       0.63752    0.83478    0.56982    1.000
    N3791    N        0.61759    0.91741    0.56125    1.000
    Si3792   Si       0.59334    0.99505    0.50532    1.000
    N3793    N        0.61193    0.00846    0.54276    1.000
    Si3794   Si       0.63513    0.90103    0.52498    1.000
    N3795    N        0.63581    0.84704    0.74108    1.000
    N3796    N        0.62707    0.79023    0.69397    1.000
    N3797    N        0.61337    0.77562    0.62949    1.000
    Si3798   Si       0.61212    0.86918    0.64348    1.000
    Si3799   Si       0.59235    0.79392    0.66725    1.000
    Si3800   Si       0.62419    0.83171    0.70394    1.000
    N3801    N        0.58044    0.83192    0.64435    1.000
    N3802    N        0.57979    0.82652    0.70596    1.000
    N3803    N        0.60296    0.98139    0.65059    1.000
    Si3804   Si       0.59575    0.93301    0.66420    1.000
    N3805    N        0.60477    0.95139    0.70431    1.000
    N3806    N        0.58703    0.88993    0.67160    1.000
    Si3807   Si       0.62840    0.00450    0.62384    1.000
    Si3808   Si       0.59700    0.00480    0.68766    1.000
    N3809    N        0.62905    0.91795    0.63616    1.000
    Si3810   Si       0.62623    0.83280    0.84150    1.000
    Si3811   Si       0.60119    0.85565    0.76919    1.000
    N3812    N        0.62997    0.85411    0.80327    1.000
    N3813    N        0.58496    0.82222    0.84582    1.000
    N3814    N        0.63139    0.86369    0.87243    1.000
    N3815    N        0.61263    0.92163    0.81668    1.000
    Si3816   Si       0.60864    0.92446    0.77387    1.000
    N3817    N        0.58267    0.89242    0.75564    1.000
    N3818    N        0.58046    0.95952    0.77223    1.000
    Si3819   Si       0.60178    0.81763    0.93093    1.000
    N3820    N        0.60925    0.78576    0.90342    1.000
    Si3821   Si       0.61677    0.87787    0.96046    1.000
    Si3822   Si       0.59671    0.87845    0.89259    1.000
    N3823    N        0.58232    0.86826    0.98529    1.000
    N3824    N        0.57920    0.79836    0.96227    1.000
    N3825    N        0.63410    0.84105    0.94607    1.000
    Si3826   Si       0.58967    0.97548    0.87055    1.000
    N3827    N        0.63217    0.96275    0.94792    1.000
    N3828    N        0.60391    0.90524    0.92722    1.000
    Si3829   Si       0.59120    0.99073    0.94879    1.000
    N3830    N        0.62621    0.95123    0.87595    1.000
    Si3831   Si       0.61776    0.94486    0.98842    1.000
    Si3832   Si       0.63480    0.93222    0.91391    1.000
    N3833    N        0.66789    0.06822    0.09637    1.000
    N3834    N        0.67432    0.09983    0.02790    1.000
    Si3835   Si       0.64823    0.08645    0.06088    1.000
    N3836    N        0.64477    0.04199    0.01379    1.000
    Si3837   Si       0.67601    0.06917    0.99519    1.000
    Si3838   Si       0.66310    0.03247    0.12133    1.000
    N3839    N        0.69268    0.13506    0.10766    1.000
    Si3840   Si       0.69667    0.13786    0.02126    1.000
    N3841    N        0.64966    0.18815    0.10959    1.000
    N3842    N        0.68049    0.23402    0.06156    1.000
    Si3843   Si       0.66075    0.15414    0.08702    1.000
    Si3844   Si       0.66112    0.23009    0.10070    1.000
    N3845    N        0.66841    0.16407    0.04239    1.000
    Si3846   Si       0.67829    0.20623    0.02928    1.000
    N3847    N        0.64832    0.21677    0.99981    1.000
    N3848    N        0.66736    0.04505    0.16308    1.000
    N3849    N        0.66525    0.05351    0.22267    1.000
    N3850    N        0.66101    0.12580    0.22374    1.000
    Si3851   Si       0.69508    0.02963    0.19597    1.000
    Si3852   Si       0.66203    0.08894    0.24747    1.000
    N3853    N        0.69262    0.25491    0.20675    1.000
    N3854    N        0.67298    0.23401    0.14150    1.000
    Si3855   Si       0.65029    0.19331    0.15642    1.000
    Si3856   Si       0.66127    0.22852    0.22096    1.000
    N3857    N        0.67471    0.19117    0.23664    1.000
    Si3858   Si       0.68756    0.15708    0.21372    1.000
    N3859    N        0.68409    0.16992    0.17132    1.000
    Si3860   Si       0.67457    0.08765    0.31717    1.000
    N3861    N        0.65419    0.12250    0.33091    1.000
    N3862    N        0.69073    0.08224    0.27716    1.000
    N3863    N        0.64365    0.05761    0.32420    1.000
    N3864    N        0.64895    0.18082    0.35536    1.000
    Si3865   Si       0.66854    0.20382    0.27769    1.000
    N3866    N        0.67432    0.24685    0.26411    1.000
    Si3867   Si       0.67954    0.15819    0.33802    1.000
    N3868    N        0.63768    0.08910    0.45670    1.000
    N3869    N        0.67677    0.01652    0.37698    1.000
    Si3870   Si       0.65680    0.10516    0.42239    1.000
    Si3871   Si       0.66714    0.03661    0.41474    1.000
    N3872    N        0.65382    0.07218    0.39536    1.000
    Si3873   Si       0.69294    0.02437    0.48328    1.000
    N3874    N        0.66059    0.24196    0.38985    1.000
    N3875    N        0.68466    0.18320    0.41924    1.000
    Si3876   Si       0.65200    0.20086    0.39484    1.000
    N3877    N        0.66361    0.19787    0.48795    1.000
    Si3878   Si       0.65073    0.02658    0.54112    1.000
    N3879    N        0.65049    0.06441    0.56130    1.000
    N3880    N        0.64899    0.12643    0.57463    1.000
    Si3881   Si       0.68097    0.09299    0.57590    1.000
    N3882    N        0.68427    0.08055    0.61650    1.000
    N3883    N        0.65687    0.03935    0.50015    1.000
    Si3884   Si       0.64908    0.16765    0.56613    1.000
    N3885    N        0.64894    0.18236    0.60838    1.000
    N3886    N        0.69147    0.17601    0.55083    1.000
    Si3887   Si       0.65788    0.09832    0.64724    1.000
    Si3888   Si       0.67192    0.09357    0.72247    1.000
    N3889    N        0.65086    0.07961    0.68595    1.000
    Si3890   Si       0.66549    0.03654    0.68914    1.000
    N3891    N        0.65574    0.02648    0.64857    1.000
    N3892    N        0.65054    0.12516    0.73964    1.000
    N3893    N        0.66905    0.05367    0.74072    1.000
    Si3894   Si       0.69548    0.04102    0.63261    1.000
    Si3895   Si       0.64195    0.22695    0.73649    1.000
    N3896    N        0.68026    0.23193    0.71587    1.000
    N3897    N        0.64297    0.24148    0.64206    1.000
    Si3898   Si       0.68454    0.16849    0.62931    1.000
    N3899    N        0.68276    0.13241    0.65535    1.000
    Si3900   Si       0.68558    0.23966    0.64078    1.000
    N3901    N        0.66098    0.04452    0.84871    1.000
    Si3902   Si       0.68610    0.07999    0.85594    1.000
    N3903    N        0.66313    0.11307    0.87000    1.000
    Si3904   Si       0.68471    0.01316    0.82879    1.000
    Si3905   Si       0.68584    0.13627    0.81766    1.000
    N3906    N        0.64367    0.14133    0.80982    1.000
    N3907    N        0.67197    0.22761    0.83252    1.000
    N3908    N        0.64475    0.19146    0.76118    1.000
    Si3909   Si       0.67421    0.16185    0.74971    1.000
    N3910    N        0.67061    0.01272    0.90349    1.000
    N3911    N        0.65469    0.08561    0.96130    1.000
    Si3912   Si       0.65313    0.12877    0.96540    1.000
    Si3913   Si       0.63760    0.03487    0.88366    1.000
    N3914    N        0.64926    0.14669    0.92604    1.000
    N3915    N        0.69438    0.23721    0.95092    1.000
    N3916    N        0.69181    0.14386    0.97978    1.000
    N3917    N        0.64637    0.18218    0.87457    1.000
    Si3918   Si       0.67958    0.14735    0.88715    1.000
    Si3919   Si       0.65432    0.24528    0.96719    1.000
    N3920    N        0.66482    0.30297    0.04213    1.000
    Si3921   Si       0.66712    0.34228    0.06108    1.000
    N3922    N        0.65481    0.37568    0.03426    1.000
    Si3923   Si       0.65563    0.29632    0.11374    1.000
    N3924    N        0.64448    0.33574    0.09832    1.000
    Si3925   Si       0.68152    0.40554    0.01314    1.000
    Si3926   Si       0.67020    0.45424    0.08511    1.000
    N3927    N        0.68223    0.49393    0.01289    1.000
    Si3928   Si       0.64917    0.46479    0.01115    1.000
    N3929    N        0.64816    0.44143    0.04880    1.000
    N3930    N        0.68677    0.41601    0.10190    1.000
    N3931    N        0.68192    0.34830    0.20552    1.000
    Si3932   Si       0.64958    0.33212    0.18286    1.000
    N3933    N        0.66805    0.30094    0.15670    1.000
    Si3934   Si       0.69144    0.26451    0.16413    1.000
    Si3935   Si       0.68781    0.33945    0.24809    1.000
    N3936    N        0.67836    0.50632    0.14725    1.000
    N3937    N        0.65015    0.49558    0.21025    1.000
    N3938    N        0.66806    0.43399    0.16957    1.000
    Si3939   Si       0.67724    0.47639    0.18171    1.000
    N3940    N        0.66424    0.27485    0.32852    1.000
    Si3941   Si       0.65083    0.27683    0.28554    1.000
    Si3942   Si       0.67143    0.35078    0.30695    1.000
    N3943    N        0.66212    0.31659    0.27579    1.000
    N3944    N        0.68276    0.37622    0.27213    1.000
    Si3945   Si       0.63711    0.26391    0.36143    1.000
    N3946    N        0.67764    0.39788    0.34277    1.000
    Si3947   Si       0.65855    0.40962    0.25826    1.000
    Si3948   Si       0.64588    0.41685    0.36526    1.000
    N3949    N        0.68238    0.44826    0.25431    1.000
    Si3950   Si       0.65982    0.48686    0.25331    1.000
    Si3951   Si       0.69456    0.48186    0.36287    1.000
    N3952    N        0.64657    0.29440    0.43912    1.000
    Si3953   Si       0.67732    0.26973    0.41786    1.000
    Si3954   Si       0.66315    0.32084    0.46881    1.000
    N3955    N        0.68289    0.35119    0.44417    1.000
    N3956    N        0.69269    0.29841    0.49277    1.000
    Si3957   Si       0.67980    0.38588    0.41780    1.000
    N3958    N        0.68970    0.42165    0.43688    1.000
    N3959    N        0.66286    0.45621    0.37907    1.000
    N3960    N        0.64143    0.39025    0.40076    1.000
    N3961    N        0.68278    0.49678    0.43623    1.000
    Si3962   Si       0.66532    0.45624    0.42288    1.000
    Si3963   Si       0.64085    0.50708    0.45190    1.000
    Si3964   Si       0.66838    0.27828    0.52454    1.000
    N3965    N        0.66514    0.29903    0.56307    1.000
    N3966    N        0.68345    0.35647    0.60282    1.000
    Si3967   Si       0.68817    0.31246    0.59590    1.000
    N3968    N        0.63702    0.34224    0.49549    1.000
    N3969    N        0.66384    0.39464    0.55011    1.000
    N3970    N        0.65437    0.45971    0.54216    1.000
    N3971    N        0.68473    0.42584    0.61336    1.000
    Si3972   Si       0.65909    0.50112    0.52693    1.000
    Si3973   Si       0.69121    0.39300    0.58493    1.000
    N3974    N        0.68264    0.49675    0.61627    1.000
    Si3975   Si       0.63769    0.38765    0.70234    1.000
    Si3976   Si       0.68704    0.27279    0.73346    1.000
    N3977    N        0.66035    0.30787    0.63112    1.000
    N3978    N        0.66662    0.37262    0.73129    1.000
    Si3979   Si       0.65358    0.35234    0.63492    1.000
    Si3980   Si       0.68268    0.46539    0.72427    1.000
    Si3981   Si       0.66189    0.42707    0.65058    1.000
    N3982    N        0.68543    0.44127    0.68461    1.000
    N3983    N        0.63930    0.47844    0.71763    1.000
    N3984    N        0.65426    0.38653    0.66196    1.000
    Si3985   Si       0.65396    0.33433    0.83155    1.000
    N3986    N        0.67660    0.35238    0.79898    1.000
    N3987    N        0.65268    0.29100    0.81990    1.000
    Si3988   Si       0.64857    0.36745    0.77098    1.000
    Si3989   Si       0.67964    0.26918    0.84498    1.000
    N3990    N        0.68152    0.33697    0.86635    1.000
    N3991    N        0.64541    0.26931    0.75040    1.000
    Si3992   Si       0.65363    0.46544    0.85601    1.000
    N3993    N        0.65738    0.40155    0.84817    1.000
    N3994    N        0.67048    0.45094    0.76483    1.000
    N3995    N        0.69229    0.45734    0.83822    1.000
    N3996    N        0.65314    0.50887    0.86653    1.000
    N3997    N        0.68912    0.32906    0.93317    1.000
    N3998    N        0.67336    0.27198    0.88844    1.000
    Si3999   Si       0.67058    0.36293    0.95428    1.000
    Si4000   Si       0.67046    0.31314    0.89912    1.000
    N4001    N        0.63857    0.28497    0.98047    1.000
    Si4002   Si       0.65833    0.45165    0.94253    1.000
    N4003    N        0.66250    0.43474    0.98414    1.000
    N4004    N        0.67381    0.39575    0.92651    1.000
    N4005    N        0.64967    0.44707    0.89507    1.000
    N4006    N        0.64471    0.49464    0.94001    1.000
    Si4007   Si       0.64775    0.40377    0.89236    1.000
    N4008    N        0.65705    0.61770    0.08231    1.000
    Si4009   Si       0.67516    0.58466    0.10468    1.000
    N4010    N        0.64963    0.55033    0.09601    1.000
    N4011    N        0.66806    0.69353    0.08528    1.000
    Si4012   Si       0.68378    0.65260    0.08610    1.000
    N4013    N        0.65177    0.68661    0.01100    1.000
    N4014    N        0.66042    0.74930    0.03933    1.000
    Si4015   Si       0.64604    0.71045    0.04976    1.000
    Si4016   Si       0.66822    0.72834    0.11677    1.000
    Si4017   Si       0.69433    0.67290    0.01046    1.000
    N4018    N        0.65151    0.56803    0.21670    1.000
    N4019    N        0.66775    0.59624    0.14652    1.000
    Si4020   Si       0.68939    0.55666    0.23687    1.000
    Si4021   Si       0.63864    0.52171    0.12879    1.000
    Si4022   Si       0.68474    0.63645    0.15614    1.000
    Si4023   Si       0.64551    0.69639    0.17771    1.000
    N4024    N        0.63926    0.72851    0.14914    1.000
    Si4025   Si       0.69160    0.70484    0.23844    1.000
    N4026    N        0.68239    0.70609    0.19670    1.000
    N4027    N        0.65073    0.64176    0.24251    1.000
    N4028    N        0.64680    0.66006    0.15354    1.000
    Si4029   Si       0.68036    0.60271    0.32917    1.000
    Si4030   Si       0.68677    0.52831    0.30772    1.000
    N4031    N        0.68547    0.52364    0.26488    1.000
    N4032    N        0.64457    0.53050    0.31959    1.000
    N4033    N        0.64326    0.59214    0.35272    1.000
    Si4034   Si       0.64435    0.54706    0.36088    1.000
    N4035    N        0.68125    0.52540    0.37434    1.000
    Si4036   Si       0.69131    0.63483    0.25707    1.000
    N4037    N        0.68239    0.63436    0.29927    1.000
    Si4038   Si       0.67392    0.74446    0.33460    1.000
    N4039    N        0.65354    0.71034    0.26058    1.000
    N4040    N        0.64572    0.66401    0.34181    1.000
    Si4041   Si       0.69270    0.66333    0.33076    1.000
    N4042    N        0.65387    0.62234    0.42546    1.000
    N4043    N        0.64858    0.54642    0.43007    1.000
    Si4044   Si       0.65987    0.58704    0.44845    1.000
    N4045    N        0.69155    0.60128    0.47637    1.000
    Si4046   Si       0.69275    0.53570    0.41530    1.000
    N4047    N        0.64327    0.52261    0.49419    1.000
    N4048    N        0.69333    0.75042    0.43412    1.000
    N4049    N        0.66695    0.68655    0.40437    1.000
    N4050    N        0.68685    0.68268    0.46303    1.000
    Si4051   Si       0.67022    0.71402    0.43795    1.000
    Si4052   Si       0.68281    0.65428    0.43064    1.000
    N4053    N        0.66026    0.52724    0.56235    1.000
    Si4054   Si       0.68225    0.61607    0.51540    1.000
    Si4055   Si       0.64377    0.51084    0.60116    1.000
    N4056    N        0.64201    0.62813    0.51983    1.000
    N4057    N        0.67131    0.63199    0.58079    1.000
    N4058    N        0.66493    0.71047    0.52032    1.000
    N4059    N        0.65996    0.73832    0.58675    1.000
    Si4060   Si       0.66614    0.74846    0.54280    1.000
    Si4061   Si       0.68982    0.71064    0.60515    1.000
    N4062    N        0.64963    0.54210    0.74042    1.000
    N4063    N        0.67190    0.53518    0.67344    1.000
    Si4064   Si       0.68489    0.53728    0.71450    1.000
    N4065    N        0.69426    0.62238    0.64511    1.000
    Si4066   Si       0.63919    0.69577    0.66038    1.000
    Si4067   Si       0.66449    0.64288    0.62272    1.000
    N4068    N        0.65844    0.68605    0.62217    1.000
    Si4069   Si       0.65456    0.68901    0.72163    1.000
    N4070    N        0.64543    0.72242    0.69553    1.000
    N4071    N        0.65514    0.66161    0.68487    1.000
    Si4072   Si       0.65466    0.57069    0.77269    1.000
    N4073    N        0.68578    0.57809    0.85125    1.000
    Si4074   Si       0.68778    0.53580    0.86153    1.000
    Si4075   Si       0.64960    0.59587    0.83364    1.000
    N4076    N        0.65888    0.62744    0.80310    1.000
    N4077    N        0.63651    0.61987    0.86880    1.000
    Si4078   Si       0.64731    0.70490    0.78838    1.000
    N4079    N        0.66077    0.74559    0.77910    1.000
    N4080    N        0.67728    0.69152    0.81610    1.000
    Si4081   Si       0.69038    0.71991    0.84645    1.000
    N4082    N        0.63357    0.67487    0.75645    1.000
    Si4083   Si       0.67092    0.56257    0.92755    1.000
    N4084    N        0.66964    0.55847    0.97166    1.000
    N4085    N        0.68382    0.60475    0.92549    1.000
    Si4086   Si       0.68954    0.60690    0.96868    1.000
    N4087    N        0.65061    0.61738    0.98907    1.000
    Si4088   Si       0.67489    0.62884    0.88778    1.000
    N4089    N        0.65812    0.73218    0.87475    1.000
    N4090    N        0.68048    0.66966    0.90067    1.000
    N4091    N        0.65784    0.72261    0.94254    1.000
    Si4092   Si       0.65171    0.70211    0.90549    1.000
    Si4093   Si       0.68011    0.75872    0.94437    1.000
    Si4094   Si       0.66446    0.83845    0.03890    1.000
    N4095    N        0.67260    0.76810    0.10174    1.000
    N4096    N        0.65491    0.87480    0.06002    1.000
    Si4097   Si       0.63980    0.77227    0.00742    1.000
    Si4098   Si       0.69251    0.77051    0.06319    1.000
    Si4099   Si       0.65778    0.80731    0.11699    1.000
    N4100    N        0.67741    0.85071    0.99979    1.000
    Si4101   Si       0.66849    0.00389    0.01386    1.000
    N4102    N        0.67608    0.99526    0.10666    1.000
    N4103    N        0.65089    0.94403    0.07483    1.000
    Si4104   Si       0.68099    0.91366    0.06892    1.000
    N4105    N        0.69126    0.90259    0.11319    1.000
    N4106    N        0.64349    0.97184    0.01426    1.000
    Si4107   Si       0.68115    0.89366    0.99799    1.000
    N4108    N        0.66270    0.85335    0.23847    1.000
    N4109    N        0.66112    0.87753    0.16462    1.000
    N4110    N        0.69275    0.82871    0.13363    1.000
    Si4111   Si       0.65054    0.88190    0.20711    1.000
    Si4112   Si       0.65119    0.90850    0.13460    1.000
    N4113    N        0.67944    0.98767    0.20494    1.000
    N4114    N        0.64564    0.94966    0.14661    1.000
    N4115    N        0.67516    0.91855    0.21121    1.000
    Si4116   Si       0.65729    0.95247    0.18933    1.000
    Si4117   Si       0.66154    0.85461    0.32375    1.000
    N4118    N        0.65644    0.78426    0.26555    1.000
    N4119    N        0.66219    0.83717    0.36396    1.000
    Si4120   Si       0.63836    0.82271    0.25742    1.000
    N4121    N        0.65465    0.89698    0.33222    1.000
    Si4122   Si       0.65514    0.98236    0.36159    1.000
    Si4123   Si       0.66786    0.92079    0.36809    1.000
    N4124    N        0.69107    0.95746    0.36074    1.000
    Si4125   Si       0.67824    0.98570    0.24912    1.000
    N4126    N        0.63934    0.00028    0.26356    1.000
    N4127    N        0.66723    0.76971    0.37174    1.000
    N4128    N        0.64797    0.85810    0.45196    1.000
    Si4129   Si       0.66407    0.81697    0.44433    1.000
    N4130    N        0.66456    0.81055    0.48818    1.000
    Si4131   Si       0.63812    0.80319    0.37729    1.000
    Si4132   Si       0.69638    0.85230    0.38912    1.000
    N4133    N        0.69446    0.98076    0.47494    1.000
    N4134    N        0.68600    0.89349    0.39651    1.000
    Si4135   Si       0.66177    0.95165    0.48110    1.000
    N4136    N        0.66459    0.92402    0.44783    1.000
    N4137    N        0.66624    0.80778    0.58725    1.000
    Si4138   Si       0.65355    0.77512    0.61407    1.000
    N4139    N        0.63963    0.85608    0.53245    1.000
    N4140    N        0.67993    0.90431    0.57671    1.000
    N4141    N        0.65192    0.97264    0.60726    1.000
    N4142    N        0.67068    0.92550    0.51486    1.000
    N4143    N        0.68660    0.00110    0.54986    1.000
    Si4144   Si       0.69139    0.97716    0.58702    1.000
    Si4145   Si       0.64081    0.90412    0.59614    1.000
    N4146    N        0.67885    0.77001    0.65006    1.000
    Si4147   Si       0.68431    0.85588    0.66043    1.000
    N4148    N        0.64291    0.85247    0.66825    1.000
    Si4149   Si       0.66024    0.76264    0.69110    1.000
    N4150    N        0.69014    0.77069    0.72064    1.000
    Si4151   Si       0.64786    0.96679    0.72142    1.000
    N4152    N        0.67083    0.95425    0.68421    1.000
    Si4153   Si       0.65850    0.94906    0.64277    1.000
    Si4154   Si       0.66960    0.77780    0.80876    1.000
    Si4155   Si       0.66103    0.84891    0.77517    1.000
    N4156    N        0.68204    0.81024    0.78325    1.000
    N4157    N        0.64567    0.79482    0.84189    1.000
    N4158    N        0.67631    0.90804    0.83961    1.000
    N4159    N        0.66494    0.97360    0.81713    1.000
    Si4160   Si       0.67921    0.95747    0.77766    1.000
    N4161    N        0.64642    0.93734    0.75527    1.000
    Si4162   Si       0.64675    0.94054    0.83871    1.000
    N4163    N        0.68191    0.98664    0.74743    1.000
    Si4164   Si       0.66946    0.88295    0.87433    1.000
    Si4165   Si       0.66862    0.82439    0.96308    1.000
    N4166    N        0.67415    0.78538    0.90948    1.000
    N4167    N        0.66524    0.78366    0.97615    1.000
    Si4168   Si       0.64354    0.77195    0.87995    1.000
    Si4169   Si       0.65745    0.99851    0.94248    1.000
    N4170    N        0.64050    0.90641    0.98333    1.000
    N4171    N        0.68465    0.00803    0.97367    1.000
    N4172    N        0.67127    0.90851    0.91067    1.000
    N4173    N        0.73618    0.08218    0.08346    1.000
    Si4174   Si       0.73722    0.02471    0.01582    1.000
    Si4175   Si       0.70330    0.09358    0.10875    1.000
    N4176    N        0.73885    0.01042    0.09723    1.000
    N4177    N        0.73283    0.14424    0.04122    1.000
    N4178    N        0.71825    0.20210    0.01153    1.000
    Si4179   Si       0.75161    0.18651    0.03625    1.000
    N4180    N        0.72885    0.05689    0.21746    1.000
    N4181    N        0.71782    0.09767    0.14901    1.000
    N4182    N        0.72946    0.02692    0.16333    1.000
    Si4183   Si       0.73777    0.06776    0.17436    1.000
    N4184    N        0.74578    0.16601    0.14923    1.000
    Si4185   Si       0.70849    0.14187    0.14979    1.000
    N4186    N        0.72891    0.15456    0.21413    1.000
    Si4187   Si       0.75408    0.17861    0.18951    1.000
    N4188    N        0.70840    0.08349    0.34662    1.000
    Si4189   Si       0.74078    0.11352    0.34361    1.000
    Si4190   Si       0.71653    0.05132    0.25934    1.000
    N4191    N        0.72818    0.01907    0.33739    1.000
    Si4192   Si       0.70857    0.04516    0.36495    1.000
    N4193    N        0.74909    0.13027    0.30277    1.000
    N4194    N        0.70920    0.00994    0.26733    1.000
    N4195    N        0.74443    0.25066    0.26518    1.000
    Si4196   Si       0.73946    0.17353    0.30293    1.000
    N4197    N        0.71417    0.14738    0.36403    1.000
    N4198    N        0.69585    0.17736    0.30279    1.000
    N4199    N        0.73772    0.04791    0.39896    1.000
    Si4200   Si       0.72362    0.07550    0.43136    1.000
    N4201    N        0.69969    0.11097    0.42258    1.000
    N4202    N        0.69507    0.04719    0.44606    1.000
    N4203    N        0.69722    0.24743    0.44920    1.000
    Si4204   Si       0.71431    0.25859    0.48810    1.000
    N4205    N        0.75034    0.16062    0.42749    1.000
    N4206    N        0.72694    0.20057    0.48393    1.000
    Si4207   Si       0.71181    0.15110    0.40769    1.000
    Si4208   Si       0.69282    0.20427    0.45485    1.000
    N4209    N        0.71394    0.10990    0.55761    1.000
    N4210    N        0.72734    0.03231    0.50728    1.000
    Si4211   Si       0.69656    0.20209    0.51689    1.000
    Si4212   Si       0.72537    0.15297    0.56495    1.000
    N4213    N        0.72118    0.15798    0.60700    1.000
    N4214    N        0.69966    0.24463    0.52803    1.000
    N4215    N        0.69318    0.23887    0.59789    1.000
    Si4216   Si       0.71930    0.25698    0.56775    1.000
    N4217    N        0.73720    0.03377    0.74125    1.000
    N4218    N        0.71166    0.09971    0.71093    1.000
    Si4219   Si       0.74552    0.07603    0.72868    1.000
    N4220    N        0.70829    0.04076    0.67585    1.000
    Si4221   Si       0.75162    0.04367    0.67277    1.000
    N4222    N        0.69905    0.16757    0.71438    1.000
    N4223    N        0.74971    0.14634    0.66918    1.000
    Si4224   Si       0.70833    0.20609    0.69686    1.000
    Si4225   Si       0.71207    0.13551    0.68661    1.000
    N4226    N        0.69622    0.19912    0.65645    1.000
    Si4227   Si       0.72967    0.06817    0.79706    1.000
    N4228    N        0.70793    0.09772    0.82289    1.000
    N4229    N        0.74480    0.09488    0.76728    1.000
    N4230    N        0.70190    0.03545    0.79647    1.000
    Si4231   Si       0.69767    0.02498    0.75429    1.000
    Si4232   Si       0.74411    0.13911    0.77077    1.000
    N4233    N        0.74076    0.22124    0.81784    1.000
    N4234    N        0.70281    0.15134    0.78048    1.000
    N4235    N        0.70475    0.16193    0.84857    1.000
    Si4236   Si       0.70950    0.20461    0.84455    1.000
    Si4237   Si       0.74683    0.14492    0.84395    1.000
    N4238    N        0.71365    0.06650    0.88618    1.000
    Si4239   Si       0.70955    0.02437    0.89144    1.000
    Si4240   Si       0.74287    0.09690    0.89610    1.000
    N4241    N        0.73875    0.01304    0.92017    1.000
    N4242    N        0.71370    0.12830    0.91077    1.000
    N4243    N        0.72113    0.06156    0.98980    1.000
    N4244    N        0.75199    0.12348    0.97611    1.000
    N4245    N        0.71951    0.21928    0.88488    1.000
    Si4246   Si       0.70534    0.24959    0.91090    1.000
    Si4247   Si       0.72636    0.21595    0.97154    1.000
    N4248    N        0.73958    0.18529    0.94110    1.000
    Si4249   Si       0.72473    0.14604    0.95163    1.000
    N4250    N        0.73098    0.28696    0.03523    1.000
    N4251    N        0.70944    0.34907    0.06801    1.000
    Si4252   Si       0.74217    0.32377    0.05741    1.000
    Si4253   Si       0.69424    0.27535    0.05661    1.000
    N4254    N        0.69626    0.28813    0.09923    1.000
    Si4255   Si       0.71409    0.39224    0.07858    1.000
    N4256    N        0.71558    0.41233    0.03804    1.000
    Si4257   Si       0.71504    0.49462    0.04201    1.000
    N4258    N        0.74874    0.47253    0.02386    1.000
    N4259    N        0.70346    0.48318    0.08211    1.000
    N4260    N        0.75017    0.39509    0.10410    1.000
    Si4261   Si       0.75384    0.42894    0.02339    1.000
    Si4262   Si       0.73009    0.30126    0.12463    1.000
    N4263    N        0.73320    0.33619    0.15310    1.000
    Si4264   Si       0.72056    0.35895    0.18791    1.000
    N4265    N        0.73260    0.26582    0.15129    1.000
    Si4266   Si       0.75426    0.37439    0.14324    1.000
    Si4267   Si       0.70821    0.26705    0.24496    1.000
    N4268    N        0.71833    0.30771    0.24897    1.000
    Si4269   Si       0.74012    0.44289    0.18277    1.000
    Si4270   Si       0.71279    0.49627    0.12346    1.000
    Si4271   Si       0.69881    0.42092    0.14284    1.000
    N4272    N        0.74524    0.42785    0.22730    1.000
    N4273    N        0.72547    0.39903    0.16799    1.000
    N4274    N        0.72164    0.45718    0.14283    1.000
    N4275    N        0.71709    0.47838    0.20278    1.000
    Si4276   Si       0.72257    0.45988    0.24421    1.000
    N4277    N        0.73532    0.27192    0.33334    1.000
    Si4278   Si       0.71256    0.37329    0.35141    1.000
    Si4279   Si       0.70095    0.29347    0.34843    1.000
    N4280    N        0.70153    0.33493    0.33383    1.000
    Si4281   Si       0.75001    0.48987    0.30912    1.000
    N4282    N        0.70926    0.49341    0.32214    1.000
    N4283    N        0.74943    0.39593    0.34688    1.000
    N4284    N        0.74724    0.48565    0.26741    1.000
    Si4285   Si       0.75824    0.43584    0.36338    1.000
    N4286    N        0.71767    0.36970    0.39580    1.000
    Si4287   Si       0.73314    0.31565    0.48663    1.000
    N4288    N        0.74405    0.32539    0.44608    1.000
    Si4289   Si       0.71466    0.33206    0.41763    1.000
    N4290    N        0.70068    0.29631    0.39401    1.000
    N4291    N        0.73222    0.46756    0.38068    1.000
    N4292    N        0.73884    0.46855    0.45627    1.000
    N4293    N        0.75504    0.39483    0.45348    1.000
    Si4294   Si       0.75297    0.48353    0.41654    1.000
    Si4295   Si       0.72574    0.42533    0.46278    1.000
    Si4296   Si       0.71160    0.49997    0.46885    1.000
    N4297    N        0.72749    0.29870    0.58726    1.000
    N4298    N        0.73485    0.34805    0.51493    1.000
    N4299    N        0.73099    0.39093    0.56886    1.000
    Si4300   Si       0.73559    0.39011    0.52506    1.000
    N4301    N        0.71993    0.46386    0.56620    1.000
    Si4302   Si       0.70848    0.46251    0.60892    1.000
    N4303    N        0.71029    0.42082    0.50392    1.000
    Si4304   Si       0.74890    0.49659    0.56145    1.000
    Si4305   Si       0.69630    0.45172    0.53114    1.000
    N4306    N        0.69626    0.48610    0.50613    1.000
    Si4307   Si       0.75705    0.36142    0.66975    1.000
    Si4308   Si       0.70411    0.35160    0.72072    1.000
    N4309    N        0.70106    0.30850    0.71251    1.000
    N4310    N        0.72025    0.37505    0.69050    1.000
    Si4311   Si       0.73387    0.29530    0.68475    1.000
    N4312    N        0.71308    0.26429    0.66265    1.000
    N4313    N        0.75082    0.32168    0.65237    1.000
    N4314    N        0.72262    0.43821    0.73421    1.000
    Si4315   Si       0.71912    0.41723    0.69632    1.000
    N4316    N        0.70575    0.50143    0.73109    1.000
    N4317    N        0.74571    0.46252    0.63350    1.000
    Si4318   Si       0.71607    0.36396    0.79331    1.000
    Si4319   Si       0.72478    0.32505    0.85489    1.000
    N4320    N        0.71947    0.28453    0.83889    1.000
    N4321    N        0.73322    0.36178    0.75407    1.000
    N4322    N        0.74434    0.34477    0.82120    1.000
    Si4323   Si       0.73649    0.26273    0.80463    1.000
    N4324    N        0.71169    0.26196    0.76882    1.000
    N4325    N        0.73247    0.47612    0.78546    1.000
    N4326    N        0.71584    0.40686    0.80420    1.000
    Si4327   Si       0.71194    0.43985    0.77646    1.000
    Si4328   Si       0.72750    0.48256    0.82874    1.000
    Si4329   Si       0.74154    0.50414    0.75454    1.000
    Si4330   Si       0.69727    0.41371    0.84202    1.000
    N4331    N        0.72119    0.40589    0.87619    1.000
    N4332    N        0.73728    0.27913    0.91904    1.000
    Si4333   Si       0.73235    0.32121    0.92835    1.000
    N4334    N        0.74452    0.33858    0.89056    1.000
    Si4335   Si       0.74050    0.37656    0.97080    1.000
    N4336    N        0.69834    0.37831    0.98334    1.000
    N4337    N        0.75262    0.33591    0.96467    1.000
    N4338    N        0.70185    0.45583    0.93415    1.000
    N4339    N        0.75079    0.50016    0.90560    1.000
    Si4340   Si       0.71078    0.41703    0.91687    1.000
    N4341    N        0.74806    0.39933    0.93125    1.000
    Si4342   Si       0.73298    0.48555    0.94146    1.000
    N4343    N        0.71990    0.53578    0.03380    1.000
    N4344    N        0.71451    0.57163    0.09658    1.000
    Si4345   Si       0.73935    0.56200    0.06229    1.000
    N4346    N        0.75020    0.59883    0.04630    1.000
    Si4347   Si       0.75050    0.56047    0.12269    1.000
    Si4348   Si       0.74467    0.64226    0.04938    1.000
    N4349    N        0.72975    0.74998    0.07189    1.000
    Si4350   Si       0.74095    0.74289    0.11314    1.000
    N4351    N        0.70436    0.65483    0.04717    1.000
    N4352    N        0.70812    0.64448    0.11996    1.000
    N4353    N        0.71286    0.71119    0.00221    1.000
    N4354    N        0.74147    0.52369    0.14472    1.000
    Si4355   Si       0.73633    0.51659    0.18798    1.000
    Si4356   Si       0.73087    0.59451    0.20877    1.000
    N4357    N        0.71761    0.55191    0.20462    1.000
    N4358    N        0.71115    0.62686    0.18936    1.000
    N4359    N        0.70641    0.59611    0.24601    1.000
    Si4360   Si       0.75126    0.63879    0.12483    1.000
    N4361    N        0.70752    0.72479    0.13549    1.000
    Si4362   Si       0.71233    0.72933    0.17707    1.000
    N4363    N        0.71576    0.74151    0.24246    1.000
    Si4364   Si       0.75461    0.72896    0.22583    1.000
    N4365    N        0.75271    0.71556    0.18567    1.000
    N4366    N        0.70482    0.56681    0.31810    1.000
    Si4367   Si       0.74937    0.56478    0.32966    1.000
    N4368    N        0.69990    0.62958    0.35893    1.000
    N4369    N        0.74843    0.58127    0.37035    1.000
    Si4370   Si       0.74039    0.70842    0.34465    1.000
    N4371    N        0.73877    0.67320    0.32011    1.000
    N4372    N        0.71641    0.67040    0.25185    1.000
    Si4373   Si       0.75195    0.67382    0.27844    1.000
    N4374    N        0.69543    0.70957    0.34339    1.000
    Si4375   Si       0.71750    0.60687    0.39097    1.000
    N4376    N        0.71938    0.54151    0.47586    1.000
    N4377    N        0.70238    0.57869    0.41889    1.000
    Si4378   Si       0.72624    0.58149    0.45894    1.000
    N4379    N        0.73805    0.52504    0.41570    1.000
    N4380    N        0.75327    0.59287    0.49889    1.000
    N4381    N        0.72337    0.63997    0.42136    1.000
    Si4382   Si       0.72846    0.56026    0.51561    1.000
    N4383    N        0.73052    0.53251    0.54812    1.000
    N4384    N        0.70522    0.56259    0.61001    1.000
    N4385    N        0.73774    0.62812    0.59265    1.000
    Si4386   Si       0.69608    0.55211    0.56879    1.000
    N4387    N        0.69598    0.58196    0.53781    1.000
    Si4388   Si       0.75515    0.63545    0.50827    1.000
    N4389    N        0.72437    0.73213    0.61776    1.000
    N4390    N        0.71327    0.68868    0.57552    1.000
    N4391    N        0.71149    0.64866    0.52261    1.000
    Si4392   Si       0.70982    0.64643    0.56571    1.000
    Si4393   Si       0.73863    0.75217    0.52130    1.000
    N4394    N        0.73355    0.71438    0.50048    1.000
    Si4395   Si       0.74806    0.71117    0.58689    1.000
    Si4396   Si       0.69899    0.68786    0.50437    1.000
    Si4397   Si       0.71778    0.59751    0.74169    1.000
    Si4398   Si       0.72554    0.59946    0.62352    1.000
    Si4399   Si       0.69869    0.53040    0.63914    1.000
    N4400    N        0.73803    0.52533    0.65995    1.000
    N4401    N        0.71628    0.56722    0.71067    1.000
    Si4402   Si       0.75105    0.56211    0.68213    1.000
    Si4403   Si       0.72154    0.66901    0.74592    1.000
    N4404    N        0.72358    0.68053    0.66958    1.000
    N4405    N        0.70914    0.63438    0.72097    1.000
    Si4406   Si       0.69796    0.64825    0.68067    1.000
    N4407    N        0.69131    0.70026    0.74168    1.000
    Si4408   Si       0.72671    0.55633    0.80125    1.000
    Si4409   Si       0.72696    0.59611    0.85338    1.000
    N4410    N        0.71849    0.52538    0.83274    1.000
    N4411    N        0.74698    0.59244    0.81660    1.000
    N4412    N        0.69803    0.57660    0.77403    1.000
    N4413    N        0.70977    0.63652    0.85679    1.000
    N4414    N        0.74059    0.74683    0.76501    1.000
    N4415    N        0.72605    0.65118    0.78660    1.000
    N4416    N        0.72748    0.70534    0.86386    1.000
    Si4417   Si       0.69801    0.74170    0.75304    1.000
    Si4418   Si       0.69405    0.65114    0.81704    1.000
    N4419    N        0.69560    0.53763    0.90322    1.000
    Si4420   Si       0.74830    0.62932    0.97584    1.000
    N4421    N        0.72590    0.52213    0.96525    1.000
    Si4422   Si       0.73825    0.54237    0.91256    1.000
    N4423    N        0.73067    0.58872    0.97295    1.000
    N4424    N        0.74900    0.57534    0.88271    1.000
    Si4425   Si       0.69549    0.53065    0.99474    1.000
    Si4426   Si       0.74214    0.73087    0.97936    1.000
    N4427    N        0.70745    0.64608    0.97690    1.000
    Si4428   Si       0.72240    0.66919    0.88512    1.000
    N4429    N        0.72490    0.75068    0.94518    1.000
    Si4430   Si       0.73705    0.82810    0.03672    1.000
    N4431    N        0.69797    0.81256    0.05187    1.000
    N4432    N        0.71869    0.94838    0.07484    1.000
    Si4433   Si       0.74570    0.90932    0.04650    1.000
    Si4434   Si       0.70714    0.98878    0.07862    1.000
    Si4435   Si       0.72887    0.92318    0.11004    1.000
    N4436    N        0.70452    0.90488    0.03145    1.000
    N4437    N        0.70377    0.00966    0.03840    1.000
    N4438    N        0.75709    0.89740    0.08679    1.000
    N4439    N        0.74674    0.78133    0.12881    1.000
    N4440    N        0.74653    0.82602    0.18087    1.000
    Si4441   Si       0.72062    0.80330    0.15363    1.000
    N4442    N        0.71154    0.77365    0.18389    1.000
    Si4443   Si       0.73735    0.79702    0.21212    1.000
    Si4444   Si       0.69987    0.87055    0.14329    1.000
    N4445    N        0.71754    0.81103    0.24666    1.000
    N4446    N        0.74645    0.93523    0.21149    1.000
    Si4447   Si       0.74769    0.99722    0.13767    1.000
    N4448    N        0.73839    0.88951    0.15715    1.000
    Si4449   Si       0.71078    0.91936    0.23287    1.000
    N4450    N        0.73691    0.95435    0.14125    1.000
    N4451    N        0.72415    0.88301    0.25013    1.000
    Si4452   Si       0.73774    0.84597    0.32480    1.000
    Si4453   Si       0.73918    0.77293    0.33438    1.000
    N4454    N        0.70172    0.76854    0.31201    1.000
    Si4455   Si       0.70027    0.84908    0.25940    1.000
    N4456    N        0.73260    0.84972    0.36672    1.000
    Si4457   Si       0.69998    0.77621    0.26783    1.000
    N4458    N        0.70068    0.84897    0.30496    1.000
    Si4459   Si       0.72956    0.97522    0.28582    1.000
    Si4460   Si       0.72844    0.97791    0.35532    1.000
    N4461    N        0.74223    0.95321    0.32174    1.000
    N4462    N        0.69988    0.94966    0.26325    1.000
    N4463    N        0.73263    0.76848    0.37826    1.000
    Si4464   Si       0.69970    0.77870    0.40092    1.000
    Si4465   Si       0.73415    0.83618    0.44509    1.000
    N4466    N        0.72471    0.83798    0.48781    1.000
    N4467    N        0.70063    0.82003    0.42125    1.000
    N4468    N        0.73784    0.87445    0.42504    1.000
    N4469    N        0.75677    0.98011    0.38651    1.000
    Si4470   Si       0.73531    0.97350    0.46795    1.000
    N4471    N        0.73601    0.94069    0.44006    1.000
    Si4472   Si       0.70777    0.91025    0.42962    1.000
    N4473    N        0.71893    0.83433    0.54833    1.000
    Si4474   Si       0.70796    0.82440    0.59079    1.000
    N4475    N        0.73563    0.79575    0.60670    1.000
    Si4476   Si       0.74240    0.85834    0.52157    1.000
    N4477    N        0.70050    0.77081    0.52762    1.000
    Si4478   Si       0.69962    0.81208    0.51335    1.000
    N4479    N        0.73874    0.90133    0.53021    1.000
    N4480    N        0.72281    0.95287    0.56764    1.000
    Si4481   Si       0.72903    0.99608    0.53806    1.000
    Si4482   Si       0.70335    0.92136    0.54388    1.000
    N4483    N        0.74923    0.96708    0.50912    1.000
    Si4484   Si       0.70949    0.89839    0.60928    1.000
    N4485    N        0.75395    0.90356    0.60773    1.000
    N4486    N        0.71095    0.00799    0.61104    1.000
    N4487    N        0.69904    0.85645    0.61910    1.000
    Si4488   Si       0.72175    0.79648    0.70815    1.000
    Si4489   Si       0.72243    0.76837    0.64219    1.000
    Si4490   Si       0.73742    0.86683    0.69288    1.000
    N4491    N        0.71183    0.83083    0.68529    1.000
    N4492    N        0.74409    0.77270    0.67927    1.000
    N4493    N        0.74149    0.81525    0.74386    1.000
    N4494    N        0.70357    0.89133    0.68008    1.000
    Si4495   Si       0.70713    0.93326    0.67470    1.000
    N4496    N        0.70033    0.93469    0.63064    1.000
    N4497    N        0.74820    0.94315    0.68046    1.000
    Si4498   Si       0.71933    0.82979    0.77891    1.000
    Si4499   Si       0.73830    0.78243    0.84149    1.000
    N4500    N        0.74372    0.80729    0.80634    1.000
    N4501    N        0.69781    0.86884    0.78221    1.000
    N4502    N        0.70350    0.75913    0.83012    1.000
    N4503    N        0.74135    0.88788    0.83815    1.000
    N4504    N        0.71477    0.93504    0.79010    1.000
    Si4505   Si       0.70780    0.89861    0.81138    1.000
    N4506    N        0.71989    0.00600    0.85304    1.000
    N4507    N        0.70203    0.85336    0.87737    1.000
    Si4508   Si       0.74265    0.87066    0.87727    1.000
    Si4509   Si       0.73400    0.85698    0.96555    1.000
    N4510    N        0.73686    0.78949    0.88474    1.000
    N4511    N        0.70701    0.83219    0.94097    1.000
    Si4512   Si       0.70322    0.81533    0.89829    1.000
    N4513    N        0.73873    0.82218    0.99448    1.000
    N4514    N        0.75029    0.99157    0.98902    1.000
    N4515    N        0.70556    0.95842    0.94004    1.000
    Si4516   Si       0.72384    0.99372    0.95666    1.000
    Si4517   Si       0.70923    0.91717    0.93103    1.000
    N4518    N        0.74316    0.89851    0.91256    1.000
    N4519    N        0.71313    0.89456    0.96771    1.000
    N4520    N        0.78564    0.10228    0.03136    1.000
    Si4521   Si       0.80050    0.06078    0.02524    1.000
    N4522    N        0.79302    0.05805    0.10770    1.000
    N4523    N        0.76819    0.03705    0.04249    1.000
    Si4524   Si       0.81086    0.09893    0.10546    1.000
    Si4525   Si       0.76005    0.04499    0.08359    1.000
    Si4526   Si       0.78690    0.13173    0.99888    1.000
    N4527    N        0.78246    0.13017    0.09497    1.000
    Si4528   Si       0.75646    0.11639    0.06263    1.000
    N4529    N        0.78722    0.17034    0.01465    1.000
    Si4530   Si       0.78847    0.22202    0.07368    1.000
    N4531    N        0.77576    0.22702    0.03378    1.000
    Si4532   Si       0.77109    0.16690    0.11443    1.000
    N4533    N        0.79660    0.25003    0.10468    1.000
    N4534    N        0.75835    0.19132    0.08105    1.000
    N4535    N        0.77813    0.07931    0.18467    1.000
    Si4536   Si       0.77365    0.06655    0.22886    1.000
    N4537    N        0.81032    0.04321    0.23386    1.000
    N4538    N        0.80826    0.25497    0.17063    1.000
    Si4539   Si       0.76296    0.25530    0.17902    1.000
    N4540    N        0.80515    0.18698    0.13243    1.000
    N4541    N        0.79094    0.16281    0.20997    1.000
    Si4542   Si       0.76272    0.14780    0.23941    1.000
    N4543    N        0.75816    0.22039    0.20437    1.000
    Si4544   Si       0.76780    0.22026    0.24589    1.000
    N4545    N        0.77196    0.07742    0.33230    1.000
    Si4546   Si       0.77609    0.09652    0.28888    1.000
    Si4547   Si       0.76211    0.03831    0.31594    1.000
    N4548    N        0.79561    0.01168    0.32734    1.000
    N4549    N        0.75700    0.05610    0.27604    1.000
    N4550    N        0.77573    0.10795    0.24727    1.000
    Si4551   Si       0.81050    0.10037    0.34249    1.000
    N4552    N        0.77817    0.13277    0.36039    1.000
    Si4553   Si       0.79225    0.17237    0.34648    1.000
    Si4554   Si       0.76229    0.24008    0.34615    1.000
    N4555    N        0.79138    0.25399    0.31723    1.000
    N4556    N        0.80895    0.22607    0.25985    1.000
    N4557    N        0.75886    0.19684    0.33390    1.000
    N4558    N        0.75702    0.18175    0.26522    1.000
    N4559    N        0.75862    0.00722    0.45201    1.000
    Si4560   Si       0.78548    0.11196    0.46541    1.000
    Si4561   Si       0.76548    0.01646    0.40802    1.000
    Si4562   Si       0.76138    0.04164    0.48146    1.000
    N4563    N        0.80800    0.02374    0.39786    1.000
    N4564    N        0.80478    0.12345    0.42923    1.000
    N4565    N        0.75514    0.08009    0.46124    1.000
    Si4566   Si       0.78369    0.14704    0.40155    1.000
    Si4567   Si       0.76112    0.18186    0.46443    1.000
    N4568    N        0.80250    0.18348    0.38601    1.000
    N4569    N        0.77999    0.14978    0.48934    1.000
    Si4570   Si       0.80183    0.21815    0.40988    1.000
    N4571    N        0.78062    0.24825    0.38526    1.000
    N4572    N        0.78252    0.21873    0.44911    1.000
    Si4573   Si       0.78796    0.25893    0.46778    1.000
    Si4574   Si       0.80118    0.02663    0.55032    1.000
    N4575    N        0.79515    0.03905    0.50931    1.000
    N4576    N        0.80560    0.06053    0.57933    1.000
    Si4577   Si       0.79154    0.07545    0.61647    1.000
    N4578    N        0.78053    0.11560    0.61487    1.000
    N4579    N        0.76212    0.01016    0.56313    1.000
    Si4580   Si       0.75470    0.01083    0.60707    1.000
    N4581    N        0.76533    0.17109    0.55520    1.000
    Si4582   Si       0.79800    0.15528    0.52898    1.000
    Si4583   Si       0.78134    0.20351    0.57894    1.000
    N4584    N        0.75760    0.23929    0.56890    1.000
    N4585    N        0.76164    0.04470    0.63108    1.000
    N4586    N        0.77540    0.07110    0.69862    1.000
    N4587    N        0.78330    0.18721    0.62179    1.000
    N4588    N        0.75268    0.20750    0.70006    1.000
    N4589    N        0.80951    0.24258    0.66968    1.000
    Si4590   Si       0.78478    0.23657    0.70387    1.000
    Si4591   Si       0.75945    0.15110    0.62627    1.000
    Si4592   Si       0.77014    0.16764    0.70236    1.000
    N4593    N        0.81112    0.17707    0.68332    1.000
    N4594    N        0.77352    0.14465    0.73854    1.000
    Si4595   Si       0.81226    0.20288    0.64989    1.000
    N4596    N        0.80156    0.23803    0.74541    1.000
    N4597    N        0.76414    0.04446    0.80758    1.000
    Si4598   Si       0.80245    0.04965    0.78581    1.000
    N4599    N        0.78900    0.01657    0.86297    1.000
    N4600    N        0.76615    0.11213    0.86324    1.000
    N4601    N        0.80388    0.02766    0.74940    1.000
    Si4602   Si       0.76018    0.01092    0.83276    1.000
    Si4603   Si       0.80956    0.11619    0.86318    1.000
    Si4604   Si       0.81108    0.12052    0.74719    1.000
    N4605    N        0.76932    0.17930    0.86468    1.000
    Si4606   Si       0.77459    0.19463    0.82030    1.000
    N4607    N        0.76305    0.15557    0.80617    1.000
    N4608    N        0.79111    0.05369    0.98192    1.000
    Si4609   Si       0.75547    0.07940    0.97051    1.000
    N4610    N        0.76767    0.08387    0.92806    1.000
    N4611    N        0.78655    0.22436    0.91255    1.000
    N4612    N        0.75710    0.24698    0.97453    1.000
    Si4613   Si       0.75255    0.19865    0.90128    1.000
    N4614    N        0.77516    0.34371    0.03472    1.000
    Si4615   Si       0.79686    0.29389    0.10212    1.000
    N4616    N        0.75857    0.31060    0.09407    1.000
    Si4617   Si       0.76251    0.26292    0.01475    1.000
    N4618    N        0.79652    0.28788    0.00342    1.000
    Si4619   Si       0.78871    0.40594    0.08867    1.000
    N4620    N        0.78610    0.42548    0.05165    1.000
    Si4621   Si       0.81411    0.45773    0.04382    1.000
    N4622    N        0.81266    0.43360    0.11304    1.000
    N4623    N        0.81662    0.48951    0.07538    1.000
    N4624    N        0.77030    0.29065    0.20357    1.000
    Si4625   Si       0.80694    0.29768    0.18056    1.000
    Si4626   Si       0.76080    0.31740    0.23629    1.000
    N4627    N        0.79521    0.38036    0.15329    1.000
    N4628    N        0.75246    0.35601    0.22036    1.000
    Si4629   Si       0.80097    0.48163    0.19023    1.000
    N4630    N        0.80949    0.39463    0.22573    1.000
    N4631    N        0.78185    0.44871    0.17278    1.000
    Si4632   Si       0.76829    0.39256    0.24039    1.000
    Si4633   Si       0.80897    0.42116    0.15388    1.000
    N4634    N        0.77419    0.51011    0.20536    1.000
    Si4635   Si       0.78564    0.50034    0.24853    1.000
    N4636    N        0.77942    0.30938    0.27686    1.000
    N4637    N        0.80088    0.34923    0.33217    1.000
    Si4638   Si       0.75997    0.27624    0.29602    1.000
    Si4639   Si       0.81311    0.32675    0.29859    1.000
    N4640    N        0.77314    0.38740    0.28311    1.000
    Si4641   Si       0.78660    0.39009    0.32451    1.000
    N4642    N        0.77188    0.45743    0.32875    1.000
    N4643    N        0.80979    0.49378    0.28949    1.000
    N4644    N        0.81749    0.41614    0.34119    1.000
    Si4645   Si       0.81614    0.45685    0.32133    1.000
    Si4646   Si       0.78621    0.33098    0.44101    1.000
    N4647    N        0.80320    0.29059    0.43883    1.000
    N4648    N        0.78628    0.35064    0.40232    1.000
    N4649    N        0.80434    0.35190    0.47450    1.000
    N4650    N        0.75328    0.27492    0.49138    1.000
    N4651    N        0.79692    0.48058    0.42661    1.000
    Si4652   Si       0.80582    0.43856    0.42677    1.000
    Si4653   Si       0.79009    0.39278    0.47997    1.000
    N4654    N        0.77496    0.42058    0.40027    1.000
    Si4655   Si       0.75620    0.38272    0.41115    1.000
    N4656    N        0.78188    0.34654    0.58785    1.000
    Si4657   Si       0.76115    0.31372    0.61168    1.000
    Si4658   Si       0.79283    0.26465    0.57423    1.000
    N4659    N        0.79120    0.28401    0.61362    1.000
    Si4660   Si       0.76670    0.38696    0.59180    1.000
    N4661    N        0.79058    0.42351    0.58364    1.000
    N4662    N        0.77494    0.40836    0.51849    1.000
    N4663    N        0.77854    0.47992    0.53248    1.000
    Si4664   Si       0.79300    0.43781    0.54384    1.000
    N4665    N        0.78389    0.35623    0.70318    1.000
    N4666    N        0.76603    0.27804    0.71078    1.000
    Si4667   Si       0.77405    0.37301    0.74139    1.000
    N4668    N        0.79877    0.49628    0.66743    1.000
    N4669    N        0.76221    0.42638    0.68761    1.000
    Si4670   Si       0.77013    0.42920    0.64681    1.000
    N4671    N        0.76032    0.38886    0.63545    1.000
    Si4672   Si       0.76481    0.44488    0.72620    1.000
    Si4673   Si       0.76554    0.50074    0.63808    1.000
    N4674    N        0.77685    0.48680    0.73106    1.000
    Si4675   Si       0.77993    0.32726    0.80311    1.000
    N4676    N        0.77114    0.28702    0.78875    1.000
    N4677    N        0.79627    0.35586    0.77397    1.000
    Si4678   Si       0.78725    0.27938    0.74958    1.000
    N4679    N        0.81199    0.32286    0.83477    1.000
    Si4680   Si       0.78720    0.43022    0.85735    1.000
    N4681    N        0.76325    0.46772    0.84889    1.000
    N4682    N        0.78745    0.38733    0.86810    1.000
    N4683    N        0.78431    0.41575    0.74989    1.000
    N4684    N        0.81259    0.42572    0.82481    1.000
    Si4685   Si       0.75234    0.38033    0.89182    1.000
    Si4686   Si       0.78314    0.33015    0.99529    1.000
    Si4687   Si       0.77363    0.25827    0.93490    1.000
    Si4688   Si       0.78073    0.42095    0.95337    1.000
    N4689    N        0.76716    0.46397    0.95968    1.000
    N4690    N        0.76506    0.40453    0.99092    1.000
    Si4691   Si       0.78407    0.48914    0.88056    1.000
    Si4692   Si       0.77793    0.48737    0.99388    1.000
    N4693    N        0.81140    0.45454    0.88792    1.000
    N4694    N        0.77048    0.54441    0.08738    1.000
    Si4695   Si       0.81357    0.53114    0.08495    1.000
    Si4696   Si       0.76756    0.74821    0.04716    1.000
    N4697    N        0.77877    0.70694    0.04496    1.000
    Si4698   Si       0.78692    0.69014    0.08138    1.000
    Si4699   Si       0.78580    0.68735    0.00732    1.000
    N4700    N        0.76763    0.65265    0.08627    1.000
    N4701    N        0.77269    0.71333    0.11562    1.000
    N4702    N        0.76243    0.65152    0.01062    1.000
    N4703    N        0.75744    0.75897    0.00653    1.000
    Si4704   Si       0.80807    0.57536    0.22378    1.000
    Si4705   Si       0.78849    0.62122    0.17244    1.000
    N4706    N        0.76552    0.59823    0.13986    1.000
    N4707    N        0.77406    0.59818    0.20677    1.000
    Si4708   Si       0.78290    0.70061    0.15667    1.000
    N4709    N        0.77507    0.65983    0.15524    1.000
    N4710    N        0.78258    0.58165    0.30597    1.000
    N4711    N        0.77180    0.52515    0.32904    1.000
    Si4712   Si       0.80087    0.54091    0.29586    1.000
    N4713    N        0.79899    0.54250    0.25285    1.000
    Si4714   Si       0.80934    0.52062    0.35379    1.000
    Si4715   Si       0.80869    0.61372    0.29097    1.000
    Si4716   Si       0.79116    0.73281    0.29069    1.000
    N4717    N        0.78122    0.64490    0.27988    1.000
    N4718    N        0.77247    0.70781    0.25889    1.000
    N4719    N        0.76220    0.73893    0.32276    1.000
    Si4720   Si       0.76325    0.55887    0.40401    1.000
    N4721    N        0.76476    0.59019    0.43666    1.000
    Si4722   Si       0.79668    0.57982    0.46489    1.000
    N4723    N        0.80393    0.54507    0.38955    1.000
    N4724    N        0.79779    0.53797    0.47552    1.000
    N4725    N        0.80320    0.71155    0.48732    1.000
    N4726    N        0.76286    0.73521    0.44162    1.000
    N4727    N        0.76330    0.65785    0.47326    1.000
    Si4728   Si       0.76380    0.63477    0.43555    1.000
    N4729    N        0.76231    0.70603    0.38314    1.000
    Si4730   Si       0.76326    0.70187    0.47474    1.000
    N4731    N        0.80029    0.64758    0.41462    1.000
    Si4732   Si       0.80007    0.68518    0.39299    1.000
    Si4733   Si       0.76458    0.74603    0.39939    1.000
    N4734    N        0.80447    0.62080    0.61001    1.000
    N4735    N        0.77482    0.50847    0.59508    1.000
    Si4736   Si       0.80264    0.50890    0.50908    1.000
    N4737    N        0.78242    0.64083    0.54263    1.000
    Si4738   Si       0.77729    0.64503    0.58685    1.000
    N4739    N        0.78154    0.68751    0.59930    1.000
    N4740    N        0.79944    0.75972    0.60684    1.000
    N4741    N        0.75596    0.74451    0.55857    1.000
    N4742    N        0.78468    0.55446    0.71289    1.000
    Si4743   Si       0.79286    0.61714    0.65139    1.000
    Si4744   Si       0.80045    0.51327    0.70914    1.000
    N4745    N        0.75780    0.59155    0.65100    1.000
    N4746    N        0.75782    0.68891    0.72862    1.000
    Si4747   Si       0.78217    0.75627    0.68469    1.000
    N4748    N        0.78663    0.71796    0.66471    1.000
    Si4749   Si       0.80049    0.71759    0.62428    1.000
    N4750    N        0.78621    0.65038    0.67851    1.000
    Si4751   Si       0.76359    0.68596    0.68492    1.000
    N4752    N        0.79424    0.74906    0.72514    1.000
    Si4753   Si       0.78497    0.56784    0.75451    1.000
    Si4754   Si       0.76003    0.62699    0.79142    1.000
    N4755    N        0.75945    0.60491    0.75390    1.000
    N4756    N        0.75400    0.54040    0.77140    1.000
    N4757    N        0.80337    0.52765    0.87728    1.000
    Si4758   Si       0.77361    0.72259    0.75058    1.000
    N4759    N        0.80016    0.64496    0.79691    1.000
    N4760    N        0.79980    0.71858    0.78475    1.000
    N4761    N        0.80016    0.69596    0.84906    1.000
    Si4762   Si       0.76805    0.72032    0.86284    1.000
    Si4763   Si       0.80473    0.75510    0.80871    1.000
    N4764    N        0.77342    0.75641    0.83834    1.000
    Si4765   Si       0.81292    0.68388    0.80840    1.000
    N4766    N        0.81005    0.60302    0.89641    1.000
    N4767    N        0.77506    0.55377    0.93342    1.000
    Si4768   Si       0.78886    0.56575    0.89326    1.000
    N4769    N        0.78773    0.62936    0.95744    1.000
    Si4770   Si       0.75702    0.55514    0.97230    1.000
    N4771    N        0.78660    0.53064    0.99417    1.000
    N4772    N        0.77840    0.73234    0.90560    1.000
    N4773    N        0.75930    0.66437    0.90684    1.000
    Si4774   Si       0.79407    0.63794    0.91486    1.000
    N4775    N        0.77592    0.70416    0.97009    1.000
    Si4776   Si       0.78209    0.69735    0.92866    1.000
    Si4777   Si       0.77933    0.86085    0.08067    1.000
    Si4778   Si       0.77636    0.80529    0.11028    1.000
    N4779    N        0.79982    0.81503    0.00936    1.000
    N4780    N        0.76911    0.81689    0.07006    1.000
    N4781    N        0.76270    0.86664    0.03433    1.000
    N4782    N        0.80506    0.76539    0.05936    1.000
    Si4783   Si       0.79282    0.85730    0.00238    1.000
    Si4784   Si       0.81363    0.80916    0.05152    1.000
    Si4785   Si       0.81200    0.94587    0.04690    1.000
    N4786    N        0.80759    0.95072    0.08966    1.000
    N4787    N        0.77412    0.93426    0.02707    1.000
    N4788    N        0.78505    0.84803    0.12583    1.000
    Si4789   Si       0.76826    0.85983    0.16390    1.000
    N4790    N        0.80151    0.86595    0.19231    1.000
    N4791    N        0.77128    0.77014    0.21630    1.000
    Si4792   Si       0.81177    0.76905    0.23136    1.000
    N4793    N        0.80812    0.97083    0.21516    1.000
    N4794    N        0.79641    0.92269    0.15485    1.000
    N4795    N        0.79109    0.99691    0.13928    1.000
    Si4796   Si       0.77798    0.94995    0.23618    1.000
    Si4797   Si       0.81010    0.95667    0.13172    1.000
    Si4798   Si       0.75507    0.92758    0.17027    1.000
    Si4799   Si       0.79185    0.80858    0.28753    1.000
    N4800    N        0.80076    0.76958    0.27253    1.000
    N4801    N        0.78306    0.83936    0.25803    1.000
    N4802    N        0.75742    0.80883    0.31443    1.000
    Si4803   Si       0.76641    0.87923    0.26649    1.000
    N4804    N        0.76307    0.88163    0.31016    1.000
    N4805    N        0.76975    0.97560    0.27090    1.000
    Si4806   Si       0.76923    0.92003    0.32931    1.000
    Si4807   Si       0.80224    0.97944    0.30211    1.000
    N4808    N        0.80717    0.94075    0.32165    1.000
    N4809    N        0.79274    0.91174    0.25115    1.000
    Si4810   Si       0.76196    0.87138    0.38899    1.000
    N4811    N        0.79938    0.77411    0.39323    1.000
    N4812    N        0.79856    0.84904    0.38620    1.000
    N4813    N        0.76951    0.80963    0.43825    1.000
    Si4814   Si       0.77690    0.77122    0.46116    1.000
    Si4815   Si       0.80532    0.81390    0.41255    1.000
    N4816    N        0.76752    0.91170    0.37317    1.000
    Si4817   Si       0.76710    0.94085    0.40588    1.000
    N4818    N        0.80302    0.94160    0.42843    1.000
    Si4819   Si       0.79577    0.80934    0.51957    1.000
    Si4820   Si       0.76819    0.77776    0.58494    1.000
    N4821    N        0.79701    0.80118    0.56199    1.000
    N4822    N        0.78483    0.84958    0.51338    1.000
    N4823    N        0.76962    0.77702    0.50315    1.000
    N4824    N        0.80499    0.83474    0.61753    1.000
    N4825    N        0.78938    0.94254    0.56560    1.000
    Si4826   Si       0.77002    0.93323    0.52719    1.000
    Si4827   Si       0.75638    0.94487    0.59321    1.000
    N4828    N        0.79795    0.91840    0.50055    1.000
    Si4829   Si       0.78342    0.87349    0.62396    1.000
    Si4830   Si       0.80175    0.82915    0.66145    1.000
    N4831    N        0.76917    0.85872    0.66566    1.000
    N4832    N        0.80861    0.78715    0.67126    1.000
    Si4833   Si       0.76959    0.00755    0.73250    1.000
    Si4834   Si       0.77766    0.97221    0.66563    1.000
    N4835    N        0.76893    0.97404    0.62328    1.000
    N4836    N        0.75578    0.88940    0.72463    1.000
    Si4837   Si       0.76792    0.93081    0.71926    1.000
    N4838    N        0.76765    0.00690    0.68850    1.000
    N4839    N        0.79946    0.84753    0.82162    1.000
    Si4840   Si       0.76031    0.78636    0.77146    1.000
    N4841    N        0.80459    0.78971    0.77990    1.000
    Si4842   Si       0.80664    0.83169    0.86246    1.000
    Si4843   Si       0.78062    0.88652    0.82084    1.000
    N4844    N        0.77854    0.90858    0.78518    1.000
    N4845    N        0.76952    0.97129    0.81800    1.000
    Si4846   Si       0.79539    0.95463    0.84899    1.000
    N4847    N        0.80255    0.91198    0.84841    1.000
    Si4848   Si       0.75698    0.94644    0.78490    1.000
    Si4849   Si       0.79307    0.88661    0.74855    1.000
    N4850    N        0.76517    0.96520    0.74757    1.000
    N4851    N        0.77778    0.86476    0.96030    1.000
    Si4852   Si       0.77088    0.79375    0.98626    1.000
    N4853    N        0.77610    0.79756    0.94286    1.000
    N4854    N        0.77865    0.84819    0.89121    1.000
    Si4855   Si       0.79327    0.83348    0.93043    1.000
    Si4856   Si       0.75679    0.76712    0.91894    1.000
    Si4857   Si       0.78254    0.96129    0.99303    1.000
    N4858    N        0.78742    0.93684    0.95728    1.000
    N4859    N        0.78037    0.95814    0.89028    1.000
    Si4860   Si       0.77735    0.00139    0.90240    1.000
    Si4861   Si       0.78027    0.90044    0.93303    1.000
    N4862    N        0.80592    0.99687    0.93505    1.000
    N4863    N        0.84736    0.09279    0.08468    1.000
    N4864    N        0.83951    0.04482    0.03696    1.000
    Si4865   Si       0.85882    0.05177    0.07541    1.000
    N4866    N        0.84960    0.01809    0.10114    1.000
    N4867    N        0.82727    0.20359    0.06237    1.000
    Si4868   Si       0.85923    0.19642    0.08774    1.000
    N4869    N        0.86089    0.15582    0.10499    1.000
    N4870    N        0.85795    0.17633    0.00576    1.000
    Si4871   Si       0.81951    0.19818    0.01981    1.000
    N4872    N        0.85879    0.22298    0.12123    1.000
    N4873    N        0.82264    0.11622    0.14362    1.000
    N4874    N        0.83755    0.04858    0.16245    1.000
    N4875    N        0.84239    0.10788    0.20588    1.000
    Si4876   Si       0.82034    0.08635    0.17576    1.000
    Si4877   Si       0.81730    0.03013    0.12948    1.000
    Si4878   Si       0.81911    0.22799    0.13761    1.000
    Si4879   Si       0.83104    0.14988    0.21168    1.000
    Si4880   Si       0.83663    0.15594    0.14015    1.000
    N4881    N        0.85286    0.17001    0.17688    1.000
    Si4882   Si       0.82426    0.02360    0.35589    1.000
    N4883    N        0.83608    0.06521    0.35391    1.000
    Si4884   Si       0.85467    0.12209    0.27719    1.000
    N4885    N        0.81934    0.10648    0.29840    1.000
    N4886    N        0.84272    0.12682    0.36054    1.000
    Si4887   Si       0.85833    0.16149    0.33546    1.000
    N4888    N        0.86059    0.22549    0.29222    1.000
    N4889    N        0.82118    0.17786    0.31676    1.000
    Si4890   Si       0.83465    0.19321    0.27750    1.000
    N4891    N        0.84276    0.15585    0.25251    1.000
    Si4892   Si       0.82601    0.25315    0.29027    1.000
    Si4893   Si       0.86172    0.09225    0.37688    1.000
    Si4894   Si       0.84542    0.03578    0.41989    1.000
    Si4895   Si       0.84368    0.10975    0.44651    1.000
    N4896    N        0.82257    0.09381    0.47930    1.000
    N4897    N        0.84920    0.02882    0.46408    1.000
    N4898    N        0.85391    0.07691    0.41555    1.000
    Si4899   Si       0.83155    0.05417    0.49321    1.000
    N4900    N        0.86308    0.20234    0.47314    1.000
    N4901    N        0.83987    0.24120    0.40875    1.000
    Si4902   Si       0.86783    0.23275    0.44236    1.000
    N4903    N        0.85240    0.06330    0.53292    1.000
    Si4904   Si       0.83809    0.08824    0.56551    1.000
    N4905    N        0.82485    0.12558    0.54815    1.000
    N4906    N        0.86697    0.09058    0.59745    1.000
    Si4907   Si       0.85756    0.15559    0.54609    1.000
    N4908    N        0.83086    0.18515    0.53053    1.000
    Si4909   Si       0.85632    0.23113    0.59794    1.000
    Si4910   Si       0.84534    0.22063    0.50878    1.000
    N4911    N        0.81692    0.22943    0.58045    1.000
    N4912    N        0.87060    0.24786    0.53230    1.000
    N4913    N        0.81856    0.25324    0.49554    1.000
    Si4914   Si       0.86063    0.09610    0.63959    1.000
    N4915    N        0.84756    0.04107    0.69678    1.000
    N4916    N        0.82785    0.10974    0.70998    1.000
    Si4917   Si       0.84644    0.02177    0.73423    1.000
    N4918    N        0.82324    0.07661    0.64650    1.000
    Si4919   Si       0.81761    0.07223    0.68916    1.000
    Si4920   Si       0.84323    0.14811    0.68793    1.000
    N4921    N        0.85921    0.13788    0.64878    1.000
    N4922    N        0.84999    0.20136    0.62955    1.000
    N4923    N        0.83679    0.03522    0.81093    1.000
    Si4924   Si       0.84181    0.11777    0.79986    1.000
    Si4925   Si       0.83114    0.01827    0.85082    1.000
    N4926    N        0.82705    0.07395    0.86242    1.000
    N4927    N        0.81440    0.09045    0.77852    1.000
    N4928    N        0.83217    0.13979    0.83459    1.000
    N4929    N        0.84060    0.14820    0.76499    1.000
    Si4930   Si       0.84078    0.18245    0.83549    1.000
    Si4931   Si       0.83116    0.22965    0.77612    1.000
    N4932    N        0.86510    0.21210    0.75436    1.000
    N4933    N        0.81340    0.20653    0.80947    1.000
    N4934    N        0.81953    0.12509    0.97187    1.000
    N4935    N        0.86019    0.02360    0.88144    1.000
    Si4936   Si       0.85236    0.06505    0.89547    1.000
    N4937    N        0.83196    0.06540    0.93227    1.000
    Si4938   Si       0.82043    0.03149    0.95760    1.000
    N4939    N        0.85390    0.01489    0.97640    1.000
    N4940    N        0.82405    0.12998    0.90223    1.000
    Si4941   Si       0.80909    0.10276    0.93394    1.000
    Si4942   Si       0.85709    0.16014    0.90146    1.000
    Si4943   Si       0.82865    0.22914    0.89877    1.000
    N4944    N        0.86468    0.17222    0.94216    1.000
    Si4945   Si       0.85775    0.14391    0.97520    1.000
    N4946    N        0.86005    0.23703    0.92855    1.000
    Si4947   Si       0.86259    0.20830    0.96701    1.000
    N4948    N        0.84114    0.19448    0.87694    1.000
    N4949    N        0.82918    0.22767    0.98615    1.000
    N4950    N        0.84845    0.35757    0.02924    1.000
    N4951    N        0.82455    0.30611    0.07141    1.000
    Si4952   Si       0.86769    0.30254    0.07767    1.000
    Si4953   Si       0.81543    0.34477    0.05300    1.000
    N4954    N        0.81181    0.36816    0.09153    1.000
    N4955    N        0.85225    0.44076    0.05757    1.000
    Si4956   Si       0.84218    0.46057    0.09517    1.000
    N4957    N        0.81516    0.46896    0.00427    1.000
    Si4958   Si       0.83579    0.35891    0.23147    1.000
    Si4959   Si       0.82241    0.35295    0.13059    1.000
    N4960    N        0.82262    0.32674    0.20858    1.000
    N4961    N        0.86185    0.35620    0.15088    1.000
    N4962    N        0.80988    0.31273    0.13956    1.000
    N4963    N        0.81548    0.46903    0.23166    1.000
    N4964    N        0.84598    0.41993    0.17733    1.000
    N4965    N        0.83394    0.49538    0.16538    1.000
    Si4966   Si       0.83327    0.43017    0.21721    1.000
    N4967    N        0.87118    0.44282    0.23774    1.000
    N4968    N        0.84181    0.29267    0.30164    1.000
    N4969    N        0.83877    0.35258    0.27419    1.000
    Si4970   Si       0.86225    0.29630    0.34042    1.000
    Si4971   Si       0.81726    0.34414    0.37198    1.000
    Si4972   Si       0.84848    0.47487    0.26449    1.000
    N4973    N        0.83092    0.48325    0.35584    1.000
    N4974    N        0.85536    0.44952    0.30015    1.000
    Si4975   Si       0.84831    0.40999    0.37070    1.000
    Si4976   Si       0.87144    0.47588    0.36691    1.000
    N4977    N        0.83101    0.30321    0.37113    1.000
    N4978    N        0.85429    0.36685    0.38137    1.000
    Si4979   Si       0.81228    0.27598    0.39875    1.000
    N4980    N        0.86323    0.31267    0.49839    1.000
    N4981    N        0.86846    0.37794    0.47939    1.000
    N4982    N        0.82042    0.42113    0.46560    1.000
    Si4983   Si       0.82071    0.50929    0.44844    1.000
    N4984    N        0.84391    0.42715    0.41022    1.000
    Si4985   Si       0.86430    0.40825    0.44700    1.000
    Si4986   Si       0.84302    0.44677    0.49336    1.000
    N4987    N        0.83174    0.48711    0.48618    1.000
    N4988    N        0.83278    0.36320    0.53835    1.000
    N4989    N        0.85351    0.34324    0.60242    1.000
    Si4990   Si       0.84425    0.28152    0.52086    1.000
    Si4991   Si       0.82114    0.33575    0.57224    1.000
    N4992    N        0.81860    0.29411    0.55350    1.000
    N4993    N        0.86200    0.26962    0.62096    1.000
    Si4994   Si       0.84117    0.35055    0.49780    1.000
    Si4995   Si       0.85460    0.39947    0.55222    1.000
    N4996    N        0.85625    0.40965    0.59549    1.000
    Si4997   Si       0.82773    0.44021    0.60379    1.000
    N4998    N        0.83579    0.48047    0.59011    1.000
    N4999    N        0.83402    0.43287    0.53262    1.000
    N5000    N        0.84518    0.35830    0.72235    1.000
    N5001    N        0.83011    0.31170    0.66602    1.000
    N5002    N        0.82428    0.29996    0.73748    1.000
    Si5003   Si       0.82193    0.27646    0.64342    1.000
    Si5004   Si       0.81871    0.32840    0.70443    1.000
    Si5005   Si       0.86442    0.32444    0.64239    1.000
    N5006    N        0.86754    0.49555    0.66008    1.000
    N5007    N        0.85116    0.44862    0.70642    1.000
    Si5008   Si       0.83280    0.46771    0.67077    1.000
    N5009    N        0.81418    0.43769    0.64455    1.000
    Si5010   Si       0.85424    0.47623    0.74067    1.000
    Si5011   Si       0.83813    0.28579    0.83670    1.000
    N5012    N        0.85762    0.37060    0.84108    1.000
    Si5013   Si       0.85531    0.29266    0.76605    1.000
    Si5014   Si       0.83893    0.35929    0.76751    1.000
    N5015    N        0.83968    0.26603    0.79712    1.000
    Si5016   Si       0.82176    0.35715    0.86143    1.000
    N5017    N        0.86469    0.33047    0.78448    1.000
    N5018    N        0.82973    0.46791    0.77531    1.000
    N5019    N        0.84822    0.39976    0.78060    1.000
    Si5020   Si       0.85293    0.40952    0.82328    1.000
    Si5021   Si       0.86179    0.47916    0.80556    1.000
    Si5022   Si       0.81329    0.42689    0.77932    1.000
    N5023    N        0.82979    0.26687    0.87542    1.000
    Si5024   Si       0.83880    0.29753    0.90617    1.000
    N5025    N        0.83030    0.34089    0.90083    1.000
    Si5026   Si       0.82696    0.27231    0.97640    1.000
    Si5027   Si       0.83231    0.36408    0.93792    1.000
    Si5028   Si       0.86254    0.33886    0.99070    1.000
    N5029    N        0.81888    0.34374    0.97343    1.000
    N5030    N        0.86914    0.28827    0.97798    1.000
    N5031    N        0.81270    0.28023    0.93637    1.000
    N5032    N        0.81977    0.40524    0.93656    1.000
    Si5033   Si       0.85223    0.48167    0.98291    1.000
    N5034    N        0.85126    0.47448    0.94090    1.000
    Si5035   Si       0.84056    0.43947    0.91765    1.000
    Si5036   Si       0.84836    0.59420    0.04516    1.000
    N5037    N        0.85247    0.61481    0.08205    1.000
    N5038    N        0.83267    0.55203    0.05230    1.000
    Si5039   Si       0.82226    0.54855    0.01095    1.000
    N5040    N        0.82056    0.59281    0.00922    1.000
    Si5041   Si       0.86429    0.58011    0.10775    1.000
    N5042    N        0.83421    0.55181    0.11899    1.000
    N5043    N        0.86237    0.74704    0.10156    1.000
    N5044    N        0.83080    0.69154    0.08226    1.000
    Si5045   Si       0.84864    0.68437    0.04353    1.000
    N5046    N        0.82431    0.66707    0.01230    1.000
    N5047    N        0.86267    0.72540    0.03059    1.000
    Si5048   Si       0.85024    0.70849    0.11619    1.000
    Si5049   Si       0.84918    0.75662    0.06100    1.000
    N5050    N        0.83592    0.56331    0.19257    1.000
    Si5051   Si       0.84210    0.53659    0.15795    1.000
    Si5052   Si       0.86116    0.59753    0.18066    1.000
    N5053    N        0.82942    0.62836    0.18750    1.000
    Si5054   Si       0.85006    0.63575    0.22773    1.000
    N5055    N        0.83911    0.73467    0.22445    1.000
    Si5056   Si       0.85728    0.72825    0.18519    1.000
    N5057    N        0.86446    0.67334    0.23697    1.000
    N5058    N        0.82864    0.71386    0.15508    1.000
    N5059    N        0.83443    0.54287    0.32490    1.000
    N5060    N        0.84092    0.61756    0.32069    1.000
    Si5061   Si       0.85786    0.57877    0.33620    1.000
    N5062    N        0.82933    0.60396    0.24984    1.000
    Si5063   Si       0.84452    0.71103    0.33168    1.000
    Si5064   Si       0.85418    0.65313    0.34339    1.000
    N5065    N        0.82919    0.71343    0.29155    1.000
    N5066    N        0.84627    0.75020    0.34831    1.000
    Si5067   Si       0.85485    0.71122    0.25807    1.000
    N5068    N        0.82129    0.68055    0.35447    1.000
    N5069    N        0.85607    0.52320    0.42855    1.000
    N5070    N        0.83116    0.58905    0.43614    1.000
    Si5071   Si       0.84103    0.55821    0.40690    1.000
    Si5072   Si       0.86289    0.59646    0.46979    1.000
    N5073    N        0.86730    0.57403    0.37842    1.000
    Si5074   Si       0.84041    0.62881    0.41784    1.000
    N5075    N        0.81886    0.59775    0.49818    1.000
    N5076    N        0.86401    0.63847    0.45559    1.000
    N5077    N        0.86388    0.70883    0.47579    1.000
    N5078    N        0.82570    0.71397    0.41256    1.000
    Si5079   Si       0.83502    0.75044    0.39009    1.000
    N5080    N        0.86686    0.64166    0.38407    1.000
    Si5081   Si       0.82929    0.72637    0.45402    1.000
    Si5082   Si       0.83586    0.58993    0.59955    1.000
    Si5083   Si       0.83607    0.56764    0.52462    1.000
    N5084    N        0.83165    0.54733    0.60794    1.000
    N5085    N        0.83794    0.59714    0.55752    1.000
    N5086    N        0.81952    0.53205    0.54164    1.000
    Si5087   Si       0.82143    0.62726    0.53151    1.000
    Si5088   Si       0.81440    0.51689    0.58178    1.000
    Si5089   Si       0.86306    0.71797    0.58490    1.000
    N5090    N        0.84805    0.66087    0.52535    1.000
    N5091    N        0.84041    0.72356    0.54873    1.000
    Si5092   Si       0.83668    0.70037    0.51199    1.000
    N5093    N        0.84195    0.51475    0.72166    1.000
    N5094    N        0.83220    0.61170    0.66842    1.000
    Si5095   Si       0.86375    0.53176    0.63147    1.000
    N5096    N        0.84255    0.71127    0.62286    1.000
    N5097    N        0.86464    0.74346    0.68632    1.000
    N5098    N        0.83026    0.63419    0.73533    1.000
    N5099    N        0.85268    0.67743    0.68358    1.000
    Si5100   Si       0.82661    0.64564    0.69529    1.000
    Si5101   Si       0.86680    0.71131    0.65783    1.000
    Si5102   Si       0.85007    0.55937    0.80548    1.000
    N5103    N        0.84639    0.57635    0.84453    1.000
    Si5104   Si       0.82954    0.62156    0.77530    1.000
    Si5105   Si       0.84510    0.53627    0.86493    1.000
    N5106    N        0.81870    0.57689    0.78012    1.000
    N5107    N        0.85271    0.51698    0.82481    1.000
    N5108    N        0.86814    0.62432    0.79420    1.000
    Si5109   Si       0.84691    0.60732    0.87365    1.000
    N5110    N        0.84839    0.65030    0.86041    1.000
    N5111    N        0.85642    0.68921    0.80581    1.000
    N5112    N        0.86028    0.74201    0.75800    1.000
    N5113    N        0.84523    0.75520    0.82395    1.000
    Si5114   Si       0.86922    0.72918    0.79822    1.000
    N5115    N        0.85339    0.52537    0.99002    1.000
    Si5116   Si       0.81801    0.62965    0.98807    1.000
    N5117    N        0.86821    0.53930    0.90258    1.000
    N5118    N        0.85729    0.63275    0.96568    1.000
    N5119    N        0.86636    0.71375    0.95709    1.000
    Si5120   Si       0.83235    0.68812    0.87785    1.000
    N5121    N        0.85193    0.72594    0.88649    1.000
    Si5122   Si       0.85802    0.67110    0.94470    1.000
    N5123    N        0.82001    0.67498    0.92119    1.000
    N5124    N        0.85765    0.79638    0.04518    1.000
    N5125    N        0.82324    0.85321    0.07114    1.000
    N5126    N        0.83571    0.86688    0.00349    1.000
    Si5127   Si       0.83054    0.83955    0.11712    1.000
    Si5128   Si       0.84976    0.87800    0.04380    1.000
    N5129    N        0.87306    0.82055    0.11564    1.000
    N5130    N        0.81772    0.79590    0.12054    1.000
    N5131    N        0.84636    0.92038    0.04008    1.000
    Si5132   Si       0.84743    0.00597    0.01672    1.000
    N5133    N        0.81706    0.97585    0.01577    1.000
    Si5134   Si       0.85735    0.78063    0.12898    1.000
    N5135    N        0.84768    0.87104    0.14137    1.000
    N5136    N        0.83248    0.80562    0.21661    1.000
    N5137    N        0.86790    0.76806    0.16852    1.000
    Si5138   Si       0.87152    0.79667    0.20113    1.000
    Si5139   Si       0.81444    0.84226    0.22844    1.000
    Si5140   Si       0.83411    0.90783    0.24192    1.000
    N5141    N        0.86272    0.99849    0.20776    1.000
    Si5142   Si       0.84397    0.96092    0.19193    1.000
    Si5143   Si       0.83000    0.00387    0.23650    1.000
    N5144    N        0.84529    0.91835    0.20128    1.000
    Si5145   Si       0.82832    0.89524    0.17082    1.000
    N5146    N        0.85060    0.96192    0.14740    1.000
    N5147    N        0.83101    0.81741    0.30300    1.000
    Si5148   Si       0.85523    0.85315    0.29179    1.000
    Si5149   Si       0.85345    0.78875    0.32767    1.000
    Si5150   Si       0.83510    0.85295    0.36351    1.000
    N5151    N        0.84467    0.87689    0.32787    1.000
    N5152    N        0.85554    0.81539    0.36428    1.000
    N5153    N        0.84157    0.86559    0.25246    1.000
    Si5154   Si       0.84358    0.91922    0.31823    1.000
    N5155    N        0.85159    0.92748    0.27667    1.000
    N5156    N        0.85716    0.99591    0.34746    1.000
    N5157    N        0.83867    0.99588    0.27905    1.000
    N5158    N        0.84651    0.82204    0.43038    1.000
    Si5159   Si       0.85106    0.79672    0.46532    1.000
    Si5160   Si       0.85983    0.86584    0.43279    1.000
    N5161    N        0.82016    0.76758    0.45730    1.000
    N5162    N        0.86150    0.87928    0.39071    1.000
    Si5163   Si       0.82216    0.93080    0.46548    1.000
    N5164    N        0.83639    0.88800    0.46214    1.000
    Si5165   Si       0.86777    0.99063    0.45546    1.000
    N5166    N        0.84474    0.96357    0.48185    1.000
    Si5167   Si       0.82928    0.79770    0.59940    1.000
    N5168    N        0.84529    0.87100    0.53073    1.000
    Si5169   Si       0.86313    0.83164    0.53245    1.000
    N5170    N        0.83700    0.80754    0.50558    1.000
    N5171    N        0.86305    0.80808    0.56879    1.000
    Si5172   Si       0.81571    0.87843    0.49895    1.000
    N5173    N        0.85353    0.93682    0.54904    1.000
    N5174    N        0.83103    0.99560    0.55113    1.000
    Si5175   Si       0.85502    0.97197    0.52310    1.000
    Si5176   Si       0.82929    0.95864    0.57831    1.000
    N5177    N        0.85003    0.96201    0.61551    1.000
    N5178    N        0.85746    0.79252    0.63440    1.000
    Si5179   Si       0.84602    0.84053    0.72219    1.000
    N5180    N        0.83416    0.84957    0.68203    1.000
    Si5181   Si       0.85376    0.78417    0.67769    1.000
    N5182    N        0.84892    0.79683    0.72176    1.000
    Si5183   Si       0.85192    0.87726    0.65291    1.000
    Si5184   Si       0.82794    0.76724    0.74572    1.000
    N5185    N        0.85272    0.97884    0.73126    1.000
    N5186    N        0.81752    0.89822    0.63132    1.000
    Si5187   Si       0.84446    0.94193    0.70730    1.000
    N5188    N        0.81621    0.95896    0.67423    1.000
    Si5189   Si       0.83473    0.93467    0.64497    1.000
    N5190    N        0.86250    0.91538    0.67161    1.000
    N5191    N        0.80973    0.91892    0.72534    1.000
    Si5192   Si       0.82386    0.82938    0.79002    1.000
    N5193    N        0.86458    0.84305    0.80175    1.000
    N5194    N        0.81772    0.85177    0.75298    1.000
    Si5195   Si       0.85014    0.76483    0.86504    1.000
    N5196    N        0.84535    0.85315    0.86921    1.000
    N5197    N        0.87025    0.90692    0.84985    1.000
    N5198    N        0.83549    0.97231    0.84512    1.000
    N5199    N        0.83750    0.83199    0.93788    1.000
    Si5200   Si       0.85883    0.82237    0.89938    1.000
    N5201    N        0.82244    0.79629    0.88223    1.000
    Si5202   Si       0.86059    0.85085    0.96928    1.000
    Si5203   Si       0.80995    0.95254    0.92284    1.000
    N5204    N        0.85391    0.95611    0.91658    1.000
    Si5205   Si       0.83366    0.89581    0.87362    1.000
    N5206    N        0.81691    0.90531    0.91086    1.000
    N5207    N        0.90033    0.05475    0.08435    1.000
    Si5208   Si       0.91309    0.10628    0.01068    1.000
    N5209    N        0.91580    0.11757    0.10673    1.000
    N5210    N        0.91320    0.06138    0.01945    1.000
    Si5211   Si       0.87931    0.12263    0.08187    1.000
    Si5212   Si       0.92858    0.07715    0.10757    1.000
    N5213    N        0.89377    0.13152    0.04105    1.000
    Si5214   Si       0.89649    0.17385    0.02697    1.000
    N5215    N        0.89576    0.19904    0.06132    1.000
    N5216    N        0.93017    0.23881    0.11195    1.000
    Si5217   Si       0.88237    0.09520    0.21681    1.000
    N5218    N        0.89643    0.05929    0.19952    1.000
    N5219    N        0.90689    0.12093    0.18964    1.000
    Si5220   Si       0.87343    0.02868    0.17838    1.000
    N5221    N        0.89058    0.25321    0.23930    1.000
    Si5222   Si       0.89060    0.24986    0.12778    1.000
    N5223    N        0.91896    0.17620    0.15245    1.000
    N5224    N        0.90372    0.24082    0.16831    1.000
    Si5225   Si       0.89585    0.16303    0.18638    1.000
    N5226    N        0.91151    0.18029    0.22290    1.000
    N5227    N        0.89181    0.04045    0.31330    1.000
    Si5228   Si       0.90740    0.06449    0.27763    1.000
    Si5229   Si       0.91811    0.06592    0.34135    1.000
    N5230    N        0.87875    0.09064    0.26082    1.000
    N5231    N        0.90402    0.09745    0.36540    1.000
    N5232    N        0.93091    0.03707    0.25302    1.000
    N5233    N        0.93045    0.08945    0.30504    1.000
    Si5234   Si       0.92517    0.13253    0.30008    1.000
    N5235    N        0.88271    0.14298    0.30396    1.000
    Si5236   Si       0.92042    0.19073    0.32932    1.000
    Si5237   Si       0.89997    0.23764    0.27814    1.000
    N5238    N        0.88282    0.19363    0.35040    1.000
    N5239    N        0.92445    0.20223    0.28705    1.000
    Si5240   Si       0.91641    0.11713    0.44285    1.000
    N5241    N        0.87471    0.00515    0.41223    1.000
    Si5242   Si       0.92925    0.18737    0.42130    1.000
    Si5243   Si       0.87447    0.22568    0.37840    1.000
    Si5244   Si       0.88983    0.16835    0.47459    1.000
    N5245    N        0.89436    0.21313    0.41349    1.000
    N5246    N        0.87779    0.13196    0.45362    1.000
    Si5247   Si       0.90047    0.11553    0.58605    1.000
    N5248    N        0.90809    0.10442    0.54498    1.000
    N5249    N        0.90483    0.03467    0.56185    1.000
    Si5250   Si       0.89557    0.06572    0.53320    1.000
    Si5251   Si       0.91748    0.02651    0.60180    1.000
    Si5252   Si       0.92261    0.01466    0.52743    1.000
    N5253    N        0.91987    0.04821    0.50109    1.000
    Si5254   Si       0.92587    0.13373    0.51913    1.000
    N5255    N        0.89888    0.22543    0.58739    1.000
    N5256    N        0.89036    0.15898    0.51700    1.000
    Si5257   Si       0.90781    0.24916    0.55090    1.000
    N5258    N        0.88093    0.15328    0.58365    1.000
    Si5259   Si       0.93006    0.21240    0.61509    1.000
    Si5260   Si       0.88378    0.04313    0.67473    1.000
    N5261    N        0.91363    0.02902    0.70255    1.000
    N5262    N        0.88765    0.02292    0.63676    1.000
    N5263    N        0.89216    0.08473    0.66592    1.000
    N5264    N        0.91564    0.09476    0.73250    1.000
    Si5265   Si       0.91528    0.05156    0.73971    1.000
    Si5266   Si       0.92513    0.10413    0.68975    1.000
    N5267    N        0.93123    0.24976    0.63821    1.000
    Si5268   Si       0.87709    0.16851    0.62465    1.000
    N5269    N        0.91822    0.21756    0.70840    1.000
    N5270    N        0.91272    0.18365    0.64490    1.000
    Si5271   Si       0.90181    0.23382    0.74432    1.000
    Si5272   Si       0.91426    0.17576    0.68851    1.000
    N5273    N        0.87882    0.16150    0.70809    1.000
    N5274    N        0.90143    0.04394    0.82997    1.000
    Si5275   Si       0.91379    0.11411    0.77164    1.000
    N5276    N        0.88104    0.09851    0.79584    1.000
    N5277    N        0.87773    0.03811    0.75977    1.000
    Si5278   Si       0.91410    0.06823    0.86386    1.000
    Si5279   Si       0.87302    0.05494    0.80029    1.000
    N5280    N        0.91229    0.15878    0.77294    1.000
    Si5281   Si       0.90534    0.19528    0.85867    1.000
    N5282    N        0.88083    0.19470    0.82372    1.000
    Si5283   Si       0.87548    0.16960    0.75129    1.000
    N5284    N        0.93003    0.22681    0.77787    1.000
    N5285    N        0.88983    0.08489    0.89990    1.000
    N5286    N        0.89123    0.11660    0.97377    1.000
    Si5287   Si       0.91052    0.09951    0.93543    1.000
    N5288    N        0.89973    0.23152    0.98016    1.000
    N5289    N        0.89819    0.16171    0.88429    1.000
    N5290    N        0.91412    0.23679    0.87016    1.000
    N5291    N        0.89191    0.33994    0.07899    1.000
    Si5292   Si       0.89014    0.36400    0.04267    1.000
    Si5293   Si       0.89779    0.26622    0.00635    1.000
    N5294    N        0.90394    0.34325    0.00808    1.000
    N5295    N        0.88328    0.27737    0.04496    1.000
    N5296    N        0.87642    0.28928    0.11955    1.000
    Si5297   Si       0.93120    0.33835    0.09812    1.000
    Si5298   Si       0.89063    0.44128    0.03898    1.000
    Si5299   Si       0.91793    0.47368    0.10003    1.000
    N5300    N        0.91056    0.40257    0.04592    1.000
    N5301    N        0.91622    0.46904    0.05854    1.000
    N5302    N        0.87827    0.47323    0.11466    1.000
    N5303    N        0.93870    0.43743    0.11268    1.000
    N5304    N        0.88666    0.30267    0.19154    1.000
    Si5305   Si       0.89983    0.33323    0.21807    1.000
    Si5306   Si       0.88407    0.31862    0.15177    1.000
    Si5307   Si       0.90615    0.26550    0.20244    1.000
    N5308    N        0.92553    0.32756    0.13976    1.000
    N5309    N        0.87689    0.37198    0.21759    1.000
    N5310    N        0.92941    0.41931    0.23003    1.000
    N5311    N        0.91855    0.39199    0.16389    1.000
    N5312    N        0.90459    0.45939    0.17409    1.000
    Si5313   Si       0.87552    0.48390    0.15506    1.000
    Si5314   Si       0.90924    0.45519    0.21813    1.000
    Si5315   Si       0.87602    0.38787    0.17539    1.000
    Si5316   Si       0.89096    0.40228    0.24732    1.000
    N5317    N        0.90104    0.32637    0.26104    1.000
    N5318    N        0.88698    0.33025    0.33044    1.000
    N5319    N        0.92109    0.26968    0.29924    1.000
    Si5320   Si       0.88110    0.35050    0.29105    1.000
    Si5321   Si       0.92581    0.26270    0.34089    1.000
    Si5322   Si       0.92814    0.33390    0.34430    1.000
    N5323    N        0.88598    0.26312    0.35732    1.000
    N5324    N        0.89133    0.39263    0.28879    1.000
    Si5325   Si       0.89149    0.42904    0.31412    1.000
    N5326    N        0.88504    0.43016    0.35664    1.000
    N5327    N        0.89370    0.49721    0.33522    1.000
    N5328    N        0.87687    0.50848    0.26910    1.000
    N5329    N        0.93083    0.44844    0.30820    1.000
    Si5330   Si       0.89403    0.31034    0.46660    1.000
    Si5331   Si       0.89291    0.36296    0.40070    1.000
    N5332    N        0.89039    0.33179    0.43047    1.000
    N5333    N        0.88761    0.26656    0.45669    1.000
    N5334    N        0.93115    0.36291    0.37550    1.000
    Si5335   Si       0.90942    0.43271    0.39420    1.000
    N5336    N        0.89508    0.47279    0.40399    1.000
    Si5337   Si       0.91269    0.47311    0.48939    1.000
    N5338    N        0.88484    0.43756    0.48030    1.000
    Si5339   Si       0.90135    0.39922    0.49669    1.000
    N5340    N        0.89966    0.40220    0.42340    1.000
    Si5341   Si       0.90678    0.27735    0.61735    1.000
    N5342    N        0.92075    0.28374    0.57470    1.000
    Si5343   Si       0.87556    0.37744    0.61795    1.000
    N5344    N        0.91898    0.38327    0.60304    1.000
    N5345    N        0.89585    0.39857    0.53882    1.000
    N5346    N        0.90753    0.47803    0.53173    1.000
    N5347    N        0.92094    0.45264    0.59910    1.000
    N5348    N        0.90555    0.31213    0.63978    1.000
    Si5349   Si       0.88371    0.36300    0.70098    1.000
    N5350    N        0.91350    0.33324    0.70922    1.000
    Si5351   Si       0.92401    0.30026    0.73355    1.000
    N5352    N        0.89141    0.27584    0.74768    1.000
    N5353    N        0.87360    0.36517    0.65995    1.000
    Si5354   Si       0.92763    0.48438    0.74544    1.000
    Si5355   Si       0.88999    0.43026    0.69519    1.000
    N5356    N        0.90365    0.39684    0.71807    1.000
    N5357    N        0.89869    0.43492    0.65360    1.000
    N5358    N        0.92313    0.45368    0.71291    1.000
    Si5359   Si       0.90643    0.47711    0.63350    1.000
    Si5360   Si       0.92954    0.41831    0.62620    1.000
    Si5361   Si       0.88197    0.33809    0.82400    1.000
    N5362    N        0.92350    0.35071    0.82913    1.000
    N5363    N        0.87922    0.29970    0.84468    1.000
    N5364    N        0.89025    0.47964    0.76912    1.000
    Si5365   Si       0.89873    0.44786    0.86861    1.000
    N5366    N        0.87560    0.44575    0.83014    1.000
    Si5367   Si       0.90307    0.27939    0.87518    1.000
    Si5368   Si       0.90191    0.33781    0.92823    1.000
    N5369    N        0.91428    0.36541    0.89801    1.000
    N5370    N        0.88279    0.29860    0.91322    1.000
    Si5371   Si       0.88911    0.26560    0.94327    1.000
    N5372    N        0.87521    0.35971    0.95182    1.000
    N5373    N        0.90228    0.48649    0.88780    1.000
    N5374    N        0.92133    0.43986    0.94524    1.000
    Si5375   Si       0.92205    0.46902    0.97306    1.000
    Si5376   Si       0.88092    0.50248    0.92149    1.000
    N5377    N        0.87706    0.42282    0.89836    1.000
    N5378    N        0.90663    0.50547    0.95690    1.000
    Si5379   Si       0.92227    0.40987    0.91276    1.000
    N5380    N        0.88710    0.46054    0.00005    1.000
    N5381    N        0.89819    0.55754    0.08980    1.000
    Si5382   Si       0.91621    0.56699    0.05018    1.000
    N5383    N        0.88761    0.59083    0.02764    1.000
    N5384    N        0.91795    0.53289    0.02239    1.000
    N5385    N        0.91926    0.62577    0.09952    1.000
    N5386    N        0.88827    0.66426    0.05164    1.000
    Si5387   Si       0.92066    0.66229    0.02238    1.000
    Si5388   Si       0.88247    0.64681    0.09076    1.000
    N5389    N        0.92073    0.70005    0.00024    1.000
    N5390    N        0.88100    0.67772    0.12282    1.000
    N5391    N        0.91731    0.55973    0.24658    1.000
    Si5392   Si       0.91718    0.54034    0.12725    1.000
    N5393    N        0.88540    0.52845    0.15355    1.000
    N5394    N        0.88525    0.61144    0.21274    1.000
    Si5395   Si       0.92060    0.61406    0.14061    1.000
    Si5396   Si       0.92195    0.60050    0.23201    1.000
    N5397    N        0.87899    0.60127    0.14335    1.000
    Si5398   Si       0.90372    0.69261    0.22936    1.000
    Si5399   Si       0.91252    0.68788    0.15257    1.000
    N5400    N        0.89544    0.70545    0.18865    1.000
    N5401    N        0.93009    0.64814    0.16473    1.000
    N5402    N        0.89269    0.56489    0.31157    1.000
    Si5403   Si       0.91629    0.51780    0.25373    1.000
    N5404    N        0.92466    0.62010    0.27126    1.000
    Si5405   Si       0.92571    0.57690    0.28586    1.000
    Si5406   Si       0.87109    0.52531    0.30885    1.000
    N5407    N        0.89660    0.71603    0.26520    1.000
    Si5408   Si       0.91221    0.70386    0.30424    1.000
    N5409    N        0.87883    0.68363    0.32564    1.000
    N5410    N        0.92943    0.60717    0.38995    1.000
    Si5411   Si       0.90297    0.57740    0.40536    1.000
    N5412    N        0.92058    0.53743    0.40534    1.000
    N5413    N        0.89892    0.58130    0.44888    1.000
    N5414    N        0.91399    0.51162    0.46895    1.000
    Si5415   Si       0.92555    0.55585    0.47353    1.000
    Si5416   Si       0.89624    0.50835    0.42776    1.000
    Si5417   Si       0.88786    0.67444    0.46474    1.000
    N5418    N        0.91366    0.67442    0.42837    1.000
    Si5419   Si       0.90947    0.64640    0.39487    1.000
    Si5420   Si       0.90418    0.58268    0.53201    1.000
    Si5421   Si       0.90736    0.60662    0.59012    1.000
    N5422    N        0.90317    0.62325    0.54985    1.000
    N5423    N        0.91028    0.56613    0.57068    1.000
    N5424    N        0.89806    0.51532    0.61124    1.000
    N5425    N        0.87443    0.57067    0.50456    1.000
    N5426    N        0.87440    0.60096    0.61625    1.000
    N5427    N        0.89128    0.68470    0.57506    1.000
    Si5428   Si       0.88997    0.66097    0.53735    1.000
    N5429    N        0.89672    0.74493    0.59001    1.000
    Si5430   Si       0.92393    0.71261    0.58272    1.000
    N5431    N        0.91162    0.67069    0.50223    1.000
    N5432    N        0.89972    0.62859    0.68264    1.000
    N5433    N        0.90963    0.51713    0.71816    1.000
    N5434    N        0.91792    0.58858    0.73843    1.000
    N5435    N        0.87270    0.55848    0.66594    1.000
    Si5436   Si       0.87466    0.52306    0.69349    1.000
    Si5437   Si       0.87375    0.60149    0.66098    1.000
    N5438    N        0.90704    0.69633    0.65878    1.000
    Si5439   Si       0.89480    0.67000    0.69229    1.000
    Si5440   Si       0.88893    0.73480    0.72546    1.000
    N5441    N        0.90480    0.69263    0.72886    1.000
    N5442    N        0.92512    0.76059    0.73049    1.000
    N5443    N        0.88499    0.55866    0.78173    1.000
    Si5444   Si       0.90052    0.59909    0.77858    1.000
    Si5445   Si       0.91507    0.54737    0.75066    1.000
    N5446    N        0.92845    0.53081    0.84135    1.000
    N5447    N        0.91189    0.65217    0.84463    1.000
    N5448    N        0.91126    0.74174    0.80214    1.000
    Si5449   Si       0.87408    0.65522    0.82434    1.000
    Si5450   Si       0.89724    0.53785    0.98477    1.000
    Si5451   Si       0.89544    0.56934    0.92008    1.000
    N5452    N        0.89768    0.57417    0.96365    1.000
    Si5453   Si       0.88753    0.60907    0.98616    1.000
    N5454    N        0.88400    0.60631    0.89761    1.000
    N5455    N        0.92447    0.63455    0.98828    1.000
    Si5456   Si       0.88753    0.72737    0.99376    1.000
    Si5457   Si       0.88380    0.71986    0.91691    1.000
    Si5458   Si       0.90462    0.64274    0.88774    1.000
    N5459    N        0.88728    0.67637    0.91172    1.000
    N5460    N        0.91938    0.74045    0.90834    1.000
    Si5461   Si       0.89103    0.80137    0.01935    1.000
    Si5462   Si       0.90103    0.83253    0.08320    1.000
    N5463    N        0.89086    0.86757    0.05969    1.000
    N5464    N        0.92115    0.80582    0.05355    1.000
    N5465    N        0.88115    0.98393    0.03206    1.000
    N5466    N        0.90651    0.96734    0.09568    1.000
    N5467    N        0.91589    0.93053    0.03889    1.000
    Si5468   Si       0.91822    0.97185    0.05548    1.000
    Si5469   Si       0.87889    0.94016    0.01937    1.000
    Si5470   Si       0.92813    0.89090    0.05156    1.000
    N5471    N        0.90619    0.79373    0.22828    1.000
    N5472    N        0.89336    0.83013    0.18191    1.000
    Si5473   Si       0.88947    0.85496    0.14575    1.000
    Si5474   Si       0.87754    0.98848    0.12003    1.000
    N5475    N        0.91136    0.89114    0.15842    1.000
    N5476    N        0.89776    0.01165    0.14809    1.000
    N5477    N        0.89541    0.84097    0.27942    1.000
    N5478    N        0.89048    0.77975    0.30917    1.000
    Si5479   Si       0.90738    0.79901    0.27128    1.000
    Si5480   Si       0.92432    0.86878    0.26321    1.000
    N5481    N        0.90736    0.97972    0.28518    1.000
    Si5482   Si       0.89370    0.93952    0.28509    1.000
    N5483    N        0.91802    0.91289    0.26354    1.000
    N5484    N        0.88857    0.93018    0.32849    1.000
    N5485    N        0.92502    0.97938    0.35487    1.000
    Si5486   Si       0.87223    0.00070    0.30695    1.000
    Si5487   Si       0.93365    0.93914    0.34083    1.000
    N5488    N        0.89113    0.78420    0.46892    1.000
    N5489    N        0.90158    0.86384    0.44690    1.000
    N5490    N        0.91828    0.80091    0.40694    1.000
    Si5491   Si       0.91306    0.87107    0.48840    1.000
    Si5492   Si       0.90904    0.76371    0.43214    1.000
    Si5493   Si       0.87605    0.80423    0.40017    1.000
    N5494    N        0.87099    0.76176    0.40917    1.000
    Si5495   Si       0.91779    0.80167    0.49803    1.000
    Si5496   Si       0.92312    0.95394    0.42408    1.000
    Si5497   Si       0.88490    0.98360    0.37699    1.000
    N5498    N        0.89131    0.94422    0.39376    1.000
    Si5499   Si       0.88802    0.90701    0.37095    1.000
    N5500    N        0.90541    0.96816    0.46011    1.000
    Si5501   Si       0.90138    0.78499    0.57338    1.000
    N5502    N        0.89918    0.83788    0.51139    1.000
    N5503    N        0.92312    0.80870    0.60213    1.000
    N5504    N        0.92233    0.77823    0.53452    1.000
    Si5505   Si       0.91526    0.88003    0.61021    1.000
    N5506    N        0.90087    0.88457    0.56942    1.000
    N5507    N        0.89864    0.98001    0.52323    1.000
    N5508    N        0.90121    0.90786    0.50535    1.000
    N5509    N        0.92109    0.98188    0.60684    1.000
    Si5510   Si       0.87498    0.90061    0.54045    1.000
    Si5511   Si       0.91471    0.94751    0.49664    1.000
    N5512    N        0.88616    0.85906    0.63310    1.000
    N5513    N        0.88908    0.84912    0.73418    1.000
    Si5514   Si       0.89452    0.81599    0.63494    1.000
    N5515    N        0.89630    0.80716    0.67801    1.000
    Si5516   Si       0.91335    0.80934    0.71879    1.000
    N5517    N        0.90544    0.96801    0.67457    1.000
    N5518    N        0.91725    0.91949    0.62914    1.000
    Si5519   Si       0.88781    0.98012    0.63660    1.000
    Si5520   Si       0.90643    0.88942    0.73564    1.000
    Si5521   Si       0.90494    0.92411    0.67201    1.000
    N5522    N        0.87815    0.92301    0.73428    1.000
    N5523    N        0.92542    0.97895    0.74492    1.000
    Si5524   Si       0.90083    0.84468    0.77723    1.000
    N5525    N        0.91654    0.84558    0.84302    1.000
    Si5526   Si       0.87703    0.86243    0.83872    1.000
    N5527    N        0.93086    0.81380    0.76886    1.000
    N5528    N        0.91932    0.88625    0.77790    1.000
    N5529    N        0.89465    0.94653    0.79894    1.000
    N5530    N        0.90172    0.97267    0.86311    1.000
    Si5531   Si       0.88755    0.95985    0.75559    1.000
    Si5532   Si       0.87289    0.94879    0.83748    1.000
    Si5533   Si       0.92088    0.00942    0.84541    1.000
    N5534    N        0.88256    0.79199    0.87527    1.000
    Si5535   Si       0.91740    0.81679    0.87554    1.000
    N5536    N        0.89868    0.83795    0.91126    1.000
    N5537    N        0.89455    0.83634    0.99396    1.000
    Si5538   Si       0.91674    0.87614    0.92400    1.000
    N5539    N        0.90470    0.76773    0.99542    1.000
    N5540    N        0.90304    0.99653    0.92928    1.000
    N5541    N        0.91086    0.92028    0.91049    1.000
    Si5542   Si       0.89268    0.99152    0.97074    1.000
    N5543    N        0.87917    0.88583    0.95134    1.000
    Si5544   Si       0.87779    0.98636    0.89572    1.000
    Si5545   Si       0.87794    0.92728    0.93938    1.000
    N5546    N        0.88091    0.94839    0.97722    1.000
    N5547    N        0.95997    0.06919    0.07940    1.000
    N5548    N        0.97812    0.05154    0.00628    1.000
    N5549    N        0.95528    0.11406    0.00922    1.000
    Si5550   Si       0.98430    0.01528    0.02777    1.000
    Si5551   Si       0.93101    0.04775    0.05530    1.000
    N5552    N        0.95368    0.17517    0.09603    1.000
    N5553    N        0.95337    0.23949    0.05588    1.000
    Si5554   Si       0.96910    0.15613    0.00246    1.000
    Si5555   Si       0.93246    0.20983    0.07949    1.000
    N5556    N        0.92956    0.17558    0.00034    1.000
    N5557    N        0.93890    0.06446    0.14671    1.000
    Si5558   Si       0.93633    0.04856    0.21205    1.000
    Si5559   Si       0.94340    0.09975    0.17278    1.000
    N5560    N        0.95891    0.08529    0.21121    1.000
    N5561    N        0.96788    0.12397    0.14573    1.000
    Si5562   Si       0.93865    0.02060    0.14820    1.000
    N5563    N        0.95063    0.01248    0.18940    1.000
    Si5564   Si       0.97516    0.11058    0.24247    1.000
    Si5565   Si       0.93674    0.21676    0.15163    1.000
    Si5566   Si       0.93859    0.14817    0.12466    1.000
    N5567    N        0.97516    0.22336    0.16592    1.000
    Si5568   Si       0.97705    0.23795    0.20777    1.000
    N5569    N        0.97701    0.20525    0.23838    1.000
    N5570    N        0.94615    0.04426    0.36469    1.000
    N5571    N        0.97083    0.01324    0.30316    1.000
    Si5572   Si       0.95650    0.00776    0.34372    1.000
    N5573    N        0.94829    0.14041    0.26407    1.000
    N5574    N        0.94300    0.22426    0.34874    1.000
    N5575    N        0.93717    0.15212    0.33827    1.000
    Si5576   Si       0.94247    0.18239    0.25232    1.000
    Si5577   Si       0.98042    0.21542    0.36707    1.000
    Si5578   Si       0.93617    0.12599    0.37200    1.000
    N5579    N        0.99030    0.07008    0.47684    1.000
    N5580    N        0.97290    0.10460    0.38090    1.000
    Si5581   Si       0.94864    0.07297    0.47403    1.000
    Si5582   Si       0.96333    0.06635    0.39893    1.000
    N5583    N        0.93420    0.07552    0.43219    1.000
    N5584    N        0.93695    0.11387    0.48210    1.000
    N5585    N        0.96579    0.20554    0.40603    1.000
    N5586    N        0.96227    0.24762    0.46386    1.000
    Si5587   Si       0.95459    0.21180    0.48970    1.000
    Si5588   Si       0.98473    0.23870    0.42583    1.000
    N5589    N        0.92777    0.18572    0.46570    1.000
    N5590    N        0.92627    0.14581    0.40922    1.000
    N5591    N        0.95710    0.04219    0.60557    1.000
    Si5592   Si       0.96921    0.10970    0.57103    1.000
    Si5593   Si       0.97832    0.03529    0.56825    1.000
    N5594    N        0.98000    0.07338    0.54900    1.000
    N5595    N        0.93736    0.10623    0.60233    1.000
    N5596    N        0.96183    0.14372    0.54131    1.000
    N5597    N        0.97082    0.20346    0.60438    1.000
    N5598    N        0.93704    0.23923    0.51982    1.000
    Si5599   Si       0.96676    0.08163    0.62335    1.000
    N5600    N        0.95758    0.08574    0.66721    1.000
    N5601    N        0.97990    0.22526    0.67775    1.000
    Si5602   Si       0.94060    0.24113    0.68080    1.000
    N5603    N        0.94545    0.14595    0.69363    1.000
    N5604    N        0.98971    0.24388    0.74531    1.000
    N5605    N        0.95246    0.10224    0.78814    1.000
    N5606    N        0.95006    0.04076    0.76127    1.000
    Si5607   Si       0.96958    0.09898    0.82860    1.000
    Si5608   Si       0.97977    0.06861    0.77731    1.000
    N5609    N        0.93941    0.10416    0.85731    1.000
    N5610    N        0.98481    0.05803    0.81890    1.000
    N5611    N        0.94058    0.17269    0.84106    1.000
    Si5612   Si       0.98412    0.16595    0.84047    1.000
    Si5613   Si       0.96279    0.25531    0.77868    1.000
    N5614    N        0.98239    0.25578    0.81727    1.000
    N5615    N        0.97865    0.18232    0.79595    1.000
    Si5616   Si       0.93315    0.18706    0.79757    1.000
    Si5617   Si       0.93836    0.04895    0.98770    1.000
    Si5618   Si       0.93485    0.02590    0.92191    1.000
    N5619    N        0.93914    0.12996    0.92358    1.000
    N5620    N        0.93442    0.03214    0.87902    1.000
    N5621    N        0.97281    0.01010    0.93474    1.000
    N5622    N        0.93160    0.06157    0.94600    1.000
    N5623    N        0.97452    0.22688    0.98887    1.000
    N5624    N        0.98146    0.15170    0.88456    1.000
    N5625    N        0.95095    0.19618    0.93116    1.000
    Si5626   Si       0.93593    0.14124    0.87920    1.000
    Si5627   Si       0.94492    0.22942    0.90142    1.000
    Si5628   Si       0.97286    0.15664    0.92809    1.000
    N5629    N        0.98191    0.24636    0.88618    1.000
    Si5630   Si       0.93865    0.21240    0.97182    1.000
    N5631    N        0.95577    0.30543    0.08015    1.000
    N5632    N        0.97374    0.33887    0.01695    1.000
    N5633    N        0.95335    0.37515    0.08976    1.000
    N5634    N        0.94005    0.28270    0.00404    1.000
    Si5635   Si       0.96215    0.26492    0.09139    1.000
    Si5636   Si       0.98694    0.31733    0.05123    1.000
    Si5637   Si       0.97158    0.25723    0.02111    1.000
    N5638    N        0.97989    0.42844    0.05809    1.000
    Si5639   Si       0.94326    0.41332    0.07464    1.000
    Si5640   Si       0.93986    0.49715    0.03356    1.000
    N5641    N        0.95660    0.47089    0.00128    1.000
    Si5642   Si       0.98888    0.44497    0.01653    1.000
    N5643    N        0.98279    0.35803    0.14646    1.000
    Si5644   Si       0.96884    0.30851    0.21888    1.000
    N5645    N        0.94090    0.33948    0.20346    1.000
    N5646    N        0.94973    0.27080    0.20941    1.000
    Si5647   Si       0.94424    0.35704    0.16415    1.000
    N5648    N        0.96987    0.45092    0.17316    1.000
    Si5649   Si       0.93440    0.43193    0.15555    1.000
    N5650    N        0.93265    0.49009    0.22576    1.000
    Si5651   Si       0.97087    0.47760    0.20914    1.000
    Si5652   Si       0.97156    0.41003    0.23532    1.000
    N5653    N        0.94800    0.34202    0.30679    1.000
    N5654    N        0.94792    0.29615    0.35655    1.000
    N5655    N        0.97347    0.30327    0.26135    1.000
    Si5656   Si       0.98328    0.36648    0.30283    1.000
    Si5657   Si       0.93565    0.30718    0.28032    1.000
    N5658    N        0.95911    0.49511    0.35907    1.000
    Si5659   Si       0.97014    0.42778    0.30753    1.000
    N5660    N        0.97881    0.39565    0.33587    1.000
    N5661    N        0.97566    0.39915    0.27538    1.000
    Si5662   Si       0.93495    0.48929    0.32494    1.000
    Si5663   Si       0.95276    0.27376    0.49832    1.000
    N5664    N        0.93612    0.31310    0.48240    1.000
    N5665    N        0.97104    0.48875    0.42307    1.000
    Si5666   Si       0.97802    0.46642    0.38758    1.000
    N5667    N        0.95483    0.45766    0.48451    1.000
    Si5668   Si       0.96570    0.39013    0.37568    1.000
    Si5669   Si       0.98740    0.46870    0.45709    1.000
    N5670    N        0.95203    0.43154    0.38458    1.000
    N5671    N        0.94447    0.38975    0.49430    1.000
    Si5672   Si       0.95423    0.31233    0.56683    1.000
    N5673    N        0.94742    0.35164    0.54803    1.000
    N5674    N        0.97486    0.29516    0.52974    1.000
    Si5675   Si       0.95819    0.34788    0.50268    1.000
    N5676    N        0.98807    0.30900    0.59237    1.000
    N5677    N        0.95939    0.50622    0.56745    1.000
    N5678    N        0.95524    0.42775    0.55133    1.000
    Si5679   Si       0.96736    0.42448    0.50946    1.000
    Si5680   Si       0.93782    0.46570    0.56253    1.000
    Si5681   Si       0.93119    0.39088    0.56182    1.000
    N5682    N        0.94051    0.28156    0.69666    1.000
    N5683    N        0.96849    0.33683    0.65728    1.000
    Si5684   Si       0.93409    0.31711    0.67316    1.000
    N5685    N        0.97580    0.40324    0.72980    1.000
    Si5686   Si       0.93696    0.41790    0.74184    1.000
    Si5687   Si       0.95454    0.45438    0.68026    1.000
    N5688    N        0.94398    0.48652    0.65325    1.000
    N5689    N        0.96395    0.41906    0.65493    1.000
    N5690    N        0.95300    0.29547    0.76629    1.000
    Si5691   Si       0.97728    0.27741    0.85508    1.000
    Si5692   Si       0.95004    0.37437    0.80535    1.000
    N5693    N        0.98248    0.35572    0.78583    1.000
    Si5694   Si       0.94065    0.34342    0.86962    1.000
    N5695    N        0.97999    0.35808    0.87491    1.000
    Si5696   Si       0.99090    0.31718    0.76512    1.000
    N5697    N        0.97453    0.40216    0.82923    1.000
    N5698    N        0.95880    0.45805    0.76090    1.000
    N5699    N        0.96011    0.47156    0.82485    1.000
    Si5700   Si       0.96656    0.43596    0.80027    1.000
    Si5701   Si       0.96974    0.46241    0.86538    1.000
    N5702    N        0.93360    0.40676    0.78399    1.000
    N5703    N        0.93849    0.43217    0.87602    1.000
    N5704    N        0.94313    0.30028    0.87832    1.000
    Si5705   Si       0.95316    0.29515    0.92220    1.000
    Si5706   Si       0.93882    0.32318    0.99266    1.000
    N5707    N        0.93609    0.32338    0.94904    1.000
    N5708    N        0.93204    0.25848    0.93178    1.000
    Si5709   Si       0.97577    0.40267    0.87434    1.000
    N5710    N        0.96883    0.40162    0.91944    1.000
    N5711    N        0.97280    0.50019    0.88646    1.000
    N5712    N        0.95735    0.58340    0.05410    1.000
    Si5713   Si       0.95439    0.62016    0.07790    1.000
    N5714    N        0.98072    0.61582    0.11401    1.000
    N5715    N        0.97593    0.50652    0.05794    1.000
    N5716    N        0.94242    0.50762    0.11535    1.000
    Si5717   Si       0.98248    0.50936    0.10032    1.000
    Si5718   Si       0.97180    0.74042    0.11282    1.000
    N5719    N        0.95607    0.65372    0.04978    1.000
    N5720    N        0.96143    0.61058    0.21165    1.000
    N5721    N        0.94048    0.57274    0.14479    1.000
    Si5722   Si       0.98275    0.57605    0.13546    1.000
    Si5723   Si       0.98113    0.70908    0.22240    1.000
    N5724    N        0.94472    0.67815    0.23486    1.000
    N5725    N        0.94026    0.71469    0.12978    1.000
    Si5726   Si       0.95873    0.65283    0.19731    1.000
    N5727    N        0.97810    0.75096    0.21643    1.000
    N5728    N        0.98294    0.68720    0.18530    1.000
    N5729    N        0.97068    0.57458    0.28591    1.000
    N5730    N        0.94336    0.51417    0.29103    1.000
    Si5731   Si       0.98322    0.53188    0.29193    1.000
    Si5732   Si       0.95578    0.65327    0.26958    1.000
    Si5733   Si       0.96142    0.69292    0.34336    1.000
    N5734    N        0.94617    0.67852    0.30376    1.000
    N5735    N        0.93640    0.73079    0.33384    1.000
    Si5736   Si       0.96681    0.62612    0.37549    1.000
    Si5737   Si       0.96145    0.52976    0.41679    1.000
    N5738    N        0.96738    0.55059    0.45598    1.000
    Si5739   Si       0.95162    0.69519    0.41456    1.000
    N5740    N        0.94131    0.73637    0.42754    1.000
    Si5741   Si       0.97828    0.75103    0.41328    1.000
    N5742    N        0.94553    0.66503    0.37690    1.000
    N5743    N        0.98090    0.71948    0.38374    1.000
    N5744    N        0.97192    0.72201    0.49310    1.000
    N5745    N        0.98130    0.67557    0.44060    1.000
    Si5746   Si       0.97082    0.61075    0.51656    1.000
    N5747    N        0.94473    0.61600    0.60959    1.000
    N5748    N        0.94075    0.58005    0.50717    1.000
    Si5749   Si       0.93091    0.53285    0.58854    1.000
    N5750    N        0.99056    0.59704    0.55289    1.000
    Si5751   Si       0.98444    0.61671    0.59103    1.000
    N5752    N        0.95668    0.70548    0.60924    1.000
    Si5753   Si       0.95053    0.68821    0.51379    1.000
    N5754    N        0.97091    0.65434    0.52758    1.000
    N5755    N        0.94147    0.71847    0.54516    1.000
    Si5756   Si       0.95500    0.75200    0.52173    1.000
    N5757    N        0.95882    0.54631    0.62133    1.000
    Si5758   Si       0.96318    0.58491    0.63645    1.000
    N5759    N        0.95665    0.58908    0.67875    1.000
    Si5760   Si       0.97619    0.51223    0.64555    1.000
    N5761    N        0.98241    0.56943    0.74039    1.000
    Si5762   Si       0.93326    0.61292    0.70589    1.000
    N5763    N        0.95811    0.64084    0.73043    1.000
    N5764    N        0.97303    0.67108    0.66948    1.000
    Si5765   Si       0.94867    0.70231    0.65252    1.000
    N5766    N        0.96550    0.74179    0.66896    1.000
    Si5767   Si       0.96276    0.74319    0.71341    1.000
    N5768    N        0.97104    0.70295    0.72742    1.000
    Si5769   Si       0.94012    0.67937    0.74857    1.000
    Si5770   Si       0.96531    0.60511    0.75804    1.000
    N5771    N        0.94715    0.52114    0.76766    1.000
    N5772    N        0.93868    0.61404    0.79355    1.000
    Si5773   Si       0.95416    0.51216    0.81136    1.000
    Si5774   Si       0.99013    0.53412    0.76551    1.000
    Si5775   Si       0.94470    0.64912    0.81710    1.000
    N5776    N        0.96247    0.72588    0.85198    1.000
    Si5777   Si       0.94765    0.72171    0.81205    1.000
    N5778    N        0.94425    0.68387    0.79060    1.000
    N5779    N        0.98254    0.64506    0.83801    1.000
    N5780    N        0.96952    0.75202    0.78588    1.000
    N5781    N        0.93450    0.55443    0.90642    1.000
    N5782    N        0.97195    0.59914    0.95313    1.000
    Si5783   Si       0.97375    0.57212    0.91973    1.000
    Si5784   Si       0.93184    0.51778    0.88172    1.000
    N5785    N        0.94335    0.63619    0.90525    1.000
    Si5786   Si       0.96022    0.70452    0.98270    1.000
    Si5787   Si       0.94981    0.63472    0.94873    1.000
    Si5788   Si       0.98118    0.63646    0.88133    1.000
    N5789    N        0.96414    0.74409    0.96658    1.000
    Si5790   Si       0.95315    0.75440    0.88698    1.000
    N5791    N        0.96827    0.67293    0.95579    1.000
    Si5792   Si       0.96095    0.79246    0.06033    1.000
    N5793    N        0.96180    0.78134    0.10195    1.000
    N5794    N        0.95380    0.87107    0.02323    1.000
    N5795    N        0.96703    0.76195    0.03193    1.000
    N5796    N        0.92852    0.84696    0.11720    1.000
    N5797    N        0.95281    0.89987    0.08745    1.000
    Si5798   Si       0.97690    0.99592    0.08560    1.000
    N5799    N        0.94676    0.00768    0.05416    1.000
    N5800    N        0.98513    0.95637    0.07368    1.000
    Si5801   Si       0.96012    0.81625    0.12910    1.000
    N5802    N        0.95639    0.80561    0.17033    1.000
    N5803    N        0.94048    0.86394    0.21971    1.000
    Si5804   Si       0.98127    0.85657    0.24134    1.000
    N5805    N        0.97725    0.81297    0.22794    1.000
    Si5806   Si       0.94359    0.88675    0.12577    1.000
    Si5807   Si       0.93209    0.82205    0.20486    1.000
    Si5808   Si       0.98920    0.78974    0.19178    1.000
    N5809    N        0.97342    0.88229    0.15935    1.000
    N5810    N        0.97278    0.00505    0.12674    1.000
    Si5811   Si       0.96967    0.97679    0.20090    1.000
    N5812    N        0.94821    0.93499    0.20069    1.000
    Si5813   Si       0.94267    0.89426    0.18790    1.000
    Si5814   Si       0.95222    0.93278    0.24359    1.000
    N5815    N        0.96132    0.85614    0.28388    1.000
    Si5816   Si       0.96856    0.82061    0.31027    1.000
    N5817    N        0.94779    0.80825    0.34439    1.000
    N5818    N        0.94934    0.78770    0.28576    1.000
    Si5819   Si       0.97750    0.77923    0.25219    1.000
    Si5820   Si       0.93068    0.77136    0.32418    1.000
    N5821    N        0.99249    0.87408    0.33731    1.000
    Si5822   Si       0.94397    0.00137    0.27224    1.000
    N5823    N        0.97301    0.93504    0.32072    1.000
    N5824    N        0.98363    0.90410    0.25382    1.000
    Si5825   Si       0.98804    0.89669    0.29918    1.000
    N5826    N        0.93225    0.90105    0.36467    1.000
    N5827    N        0.96302    0.97529    0.24511    1.000
    Si5828   Si       0.98371    0.83045    0.47654    1.000
    Si5829   Si       0.95311    0.81280    0.38668    1.000
    N5830    N        0.95753    0.86706    0.47719    1.000
    N5831    N        0.96021    0.85308    0.40186    1.000
    N5832    N        0.95674    0.79643    0.47992    1.000
    Si5833   Si       0.94224    0.87376    0.43393    1.000
    N5834    N        0.98651    0.78924    0.39769    1.000
    Si5835   Si       0.98200    0.93667    0.43032    1.000
    Si5836   Si       0.97030    0.88414    0.37399    1.000
    N5837    N        0.94218    0.91623    0.43406    1.000
    N5838    N        0.96019    0.97547    0.41942    1.000
    Si5839   Si       0.97671    0.90410    0.49613    1.000
    Si5840   Si       0.96348    0.82625    0.60569    1.000
    N5841    N        0.95662    0.86847    0.61256    1.000
    Si5842   Si       0.94502    0.94563    0.61135    1.000
    N5843    N        0.95678    0.94446    0.50506    1.000
    N5844    N        0.96054    0.93524    0.57427    1.000
    Si5845   Si       0.97245    0.96320    0.54270    1.000
    N5846    N        0.96178    0.00490    0.54276    1.000
    N5847    N        0.95508    0.82255    0.70765    1.000
    N5848    N        0.97991    0.80764    0.64138    1.000
    N5849    N        0.97891    0.87318    0.74096    1.000
    Si5850   Si       0.98634    0.83127    0.67788    1.000
    N5851    N        0.98884    0.87406    0.66934    1.000
    N5852    N        0.92965    0.90162    0.70015    1.000
    Si5853   Si       0.97206    0.89593    0.70239    1.000
    Si5854   Si       0.98776    0.89553    0.63166    1.000
    Si5855   Si       0.93243    0.99090    0.70250    1.000
    N5856    N        0.97821    0.93922    0.63929    1.000
    N5857    N        0.97624    0.99394    0.69307    1.000
    Si5858   Si       0.95326    0.87238    0.84991    1.000
    Si5859   Si       0.96856    0.83149    0.74909    1.000
    N5860    N        0.99037    0.84574    0.84530    1.000
    Si5861   Si       0.93012    0.76851    0.77347    1.000
    N5862    N        0.97181    0.92765    0.78291    1.000
    N5863    N        0.95143    0.99115    0.81883    1.000
    N5864    N        0.93863    0.91222    0.84069    1.000
    Si5865   Si       0.94809    0.99873    0.77523    1.000
    Si5866   Si       0.98451    0.97888    0.84754    1.000
    Si5867   Si       0.93129    0.92221    0.79982    1.000
    Si5868   Si       0.97993    0.87007    0.92570    1.000
    N5869    N        0.95534    0.79763    0.87955    1.000
    N5870    N        0.96035    0.81144    0.98450    1.000
    N5871    N        0.94912    0.87083    0.95540    1.000
    N5872    N        0.95196    0.87337    0.89412    1.000
    Si5873   Si       0.93747    0.84721    0.98903    1.000
    Si5874   Si       0.94704    0.77203    0.99528    1.000
    Si5875   Si       0.96796    0.98471    0.97057    1.000
    N5876    N        0.96696    0.94622    0.95194    1.000
    N5877    N        0.97042    0.95345    0.88086    1.000
    Si5878   Si       0.92951    0.93792    0.87384    1.000
    N5879    N        0.93246    0.00516    0.98545    1.000
